<configuration>
    <input>
        <net-file value="../roadnet/roadnet_sumo_30_30_turn.net.xml"/>
        <route-files value="../flow/flow_sumo_30_30_turn.rou.xml"/>
    </input>
    <time>
        <begin value="0"/>
        <end value="3600"/>
    </time>
</configuration>
