<routes xmlns:xsi="http://www.w3.org/2001/XMLSchema-instance" xsi:noNamespaceSchemaLocation="http://sumo.dlr.de/xsd/routes_file.xsd">
    <vType id="SUMO_DEFAULT_TYPE" accel="0.8" decel="4.5" sigma="0" length="5" minGap="2" maxSpeed="70"/>

<flow id="0" type="SUMO_DEFAULT_TYPE" begin="0" end="3600" number="1200" from="489819521" to="154334348#3" departPos="0" departLane="best" departSpeed="5.0"/>
<flow id="1" type="SUMO_DEFAULT_TYPE" begin="0" end="3600" number="800" from="589380863#2" to="344066886#0" departPos="0" departLane="best" departSpeed="5.0"/>
<flow id="2" type="SUMO_DEFAULT_TYPE" begin="0" end="3600" number="1200" from="-582118710" to="340648409" departPos="0" departLane="best" departSpeed="5.0"/>
<flow id="3" type="SUMO_DEFAULT_TYPE" begin="0" end="3600" number="800" from="590053411#3" to="539974770#1" departPos="0" departLane="best" departSpeed="5.0"/>
<flow id="4" type="SUMO_DEFAULT_TYPE" begin="0" end="3600" number="1200" from="154260294" to="581139442#0" departPos="0" departLane="best" departSpeed="5.0"/>
<flow id="5" type="SUMO_DEFAULT_TYPE" begin="0" end="3600" number="800" from="589377313#15" to="28596668#4" departPos="0" departLane="best" departSpeed="5.0"/>
<flow id="6" type="SUMO_DEFAULT_TYPE" begin="0" end="3600" number="1200" from="590060030#2" to="571884285#4" departPos="0" departLane="best" departSpeed="5.0"/>
<flow id="7" type="SUMO_DEFAULT_TYPE" begin="0" end="3600" number="800" from="581066301" to="-539974770#3" departPos="0" departLane="best" departSpeed="5.0"/>
<flow id="8" type="SUMO_DEFAULT_TYPE" begin="0" end="3600" number="1200" from="222475192#1" to="154259191" departPos="0" departLane="best" departSpeed="5.0"/>
<!--<flow id="9" type="SUMO_DEFAULT_TYPE" begin="0" end="3600" number="800" from="356766856#12" to="336983476#1" departPos="0" departLane="best" departSpeed="5.0"/>-->
<flow id="10" type="SUMO_DEFAULT_TYPE" begin="0" end="3600" number="1200" from="-548309843" to="509220140#1" departPos="0" departLane="best" departSpeed="5.0"/>
<flow id="11" type="SUMO_DEFAULT_TYPE" begin="0" end="3600" number="800" from="595826197#1" to="154360965#0" departPos="0" departLane="best" departSpeed="5.0"/>
<flow id="12" type="SUMO_DEFAULT_TYPE" begin="0" end="3600" number="1200" from="509220146" to="337620204#0" departPos="0" departLane="best" departSpeed="5.0"/>
<flow id="13" type="SUMO_DEFAULT_TYPE" begin="0" end="3600" number="800" from="337620225#2" to="463456308#1" departPos="0" departLane="best" departSpeed="5.0"/>
<flow id="14" type="SUMO_DEFAULT_TYPE" begin="0" end="3600" number="1200" from="571531059#19" to="586574690" departPos="0" departLane="best" departSpeed="5.0"/>
<flow id="15" type="SUMO_DEFAULT_TYPE" begin="0" end="3600" number="800" from="489800481" to="519322344#10" departPos="0" departLane="best" departSpeed="5.0"/>
<flow id="16" type="SUMO_DEFAULT_TYPE" begin="0" end="3600" number="1200" from="519322344#3" to="4557618#3" departPos="0" departLane="best" departSpeed="5.0"/>
<flow id="17" type="SUMO_DEFAULT_TYPE" begin="0" end="3600" number="800" from="589569603#7" to="509220135#0" departPos="0" departLane="best" departSpeed="5.0"/>
<flow id="18" type="SUMO_DEFAULT_TYPE" begin="0" end="3600" number="1200" from="589377318#2" to="113467374#1" departPos="0" departLane="best" departSpeed="5.0"/>
<!--<flow id="19" type="SUMO_DEFAULT_TYPE" begin="0" end="3600" number="800" from="582781426#3" to="392433340#11" departPos="0" departLane="best" departSpeed="5.0"/>-->
<flow id="20" type="SUMO_DEFAULT_TYPE" begin="0" end="3600" number="1200" from="581132504#1" to="338649246#1" departPos="0" departLane="best" departSpeed="5.0"/>
<flow id="21" type="SUMO_DEFAULT_TYPE" begin="0" end="3600" number="800" from="581139442#1" to="392433340#6" departPos="0" departLane="best" departSpeed="5.0"/>
<flow id="22" type="SUMO_DEFAULT_TYPE" begin="0" end="3600" number="1200" from="24667447#7" to="-581066300" departPos="0" departLane="best" departSpeed="5.0"/>
<!--<flow id="23" type="SUMO_DEFAULT_TYPE" begin="0" end="3600" number="800" from="576780818#0" to="154112213" departPos="0" departLane="best" departSpeed="5.0"/>-->
<flow id="24" type="SUMO_DEFAULT_TYPE" begin="0" end="3600" number="1200" from="392433340#4" to="337620204#1" departPos="0" departLane="best" departSpeed="5.0"/>
<flow id="25" type="SUMO_DEFAULT_TYPE" begin="0" end="3600" number="800" from="589377313#5" to="24667447#7" departPos="0" departLane="best" departSpeed="5.0"/>
<flow id="26" type="SUMO_DEFAULT_TYPE" begin="0" end="3600" number="1200" from="582546335#1" to="509220138#1" departPos="0" departLane="best" departSpeed="5.0"/>
<flow id="27" type="SUMO_DEFAULT_TYPE" begin="0" end="3600" number="800" from="154112327" to="509220166" departPos="0" departLane="best" departSpeed="5.0"/>
<flow id="28" type="SUMO_DEFAULT_TYPE" begin="0" end="3600" number="1200" from="589384551#0" to="388018767#0" departPos="0" departLane="best" departSpeed="5.0"/>
<flow id="29" type="SUMO_DEFAULT_TYPE" begin="0" end="3600" number="800" from="360785443" to="154261204" departPos="0" departLane="best" departSpeed="5.0"/>
<flow id="30" type="SUMO_DEFAULT_TYPE" begin="0" end="3600" number="1200" from="582537678" to="589429907#0" departPos="0" departLane="best" departSpeed="5.0"/>
<!--<flow id="31" type="SUMO_DEFAULT_TYPE" begin="0" end="3600" number="800" from="571531025" to="565661278" departPos="0" departLane="best" departSpeed="5.0"/>-->
<flow id="32" type="SUMO_DEFAULT_TYPE" begin="0" end="3600" number="1200" from="582793733#0" to="-532644062" departPos="0" departLane="best" departSpeed="5.0"/>
<flow id="33" type="SUMO_DEFAULT_TYPE" begin="0" end="3600" number="800" from="499897445" to="590073019" departPos="0" departLane="best" departSpeed="5.0"/>
<flow id="34" type="SUMO_DEFAULT_TYPE" begin="0" end="3600" number="1200" from="509220138#0" to="154260824" departPos="0" departLane="best" departSpeed="5.0"/>
<flow id="35" type="SUMO_DEFAULT_TYPE" begin="0" end="3600" number="800" from="154351766#9" to="-154124066" departPos="0" departLane="best" departSpeed="5.0"/>
<!--<flow id="36" type="SUMO_DEFAULT_TYPE" begin="0" end="3600" number="1200" from="-154142005#1" to="589390772" departPos="0" departLane="best" departSpeed="5.0"/>-->
<!--<flow id="37" type="SUMO_DEFAULT_TYPE" begin="0" end="3600" number="800" from="4397966" to="337620223#6" departPos="0" departLane="best" departSpeed="5.0"/>-->
<!--<flow id="38" type="SUMO_DEFAULT_TYPE" begin="0" end="3600" number="1200" from="337620211#3" to="589429911#1" departPos="0" departLane="best" departSpeed="5.0"/>-->
<!--<flow id="39" type="SUMO_DEFAULT_TYPE" begin="0" end="3600" number="800" from="589429908#3" to="154351779#17" departPos="0" departLane="best" departSpeed="5.0"/>-->
<!--<flow id="40" type="SUMO_DEFAULT_TYPE" begin="0" end="3600" number="1200" from="581094188#0" to="587820076" departPos="0" departLane="best" departSpeed="5.0"/>-->
<!--<flow id="41" type="SUMO_DEFAULT_TYPE" begin="0" end="3600" number="800" from="154259191" to="531431467#3" departPos="0" departLane="best" departSpeed="5.0"/>-->
<!--<flow id="42" type="SUMO_DEFAULT_TYPE" begin="0" end="3600" number="1200" from="593992374" to="-589377313#12" departPos="0" departLane="best" departSpeed="5.0"/>-->
<!--<flow id="43" type="SUMO_DEFAULT_TYPE" begin="0" end="3600" number="800" from="154325307#1" to="-582537682" departPos="0" departLane="best" departSpeed="5.0"/>-->
<!--<flow id="44" type="SUMO_DEFAULT_TYPE" begin="0" end="3600" number="1200" from="509220150#2" to="509220150#6" departPos="0" departLane="best" departSpeed="5.0"/>-->
<!--<flow id="45" type="SUMO_DEFAULT_TYPE" begin="0" end="3600" number="800" from="-519322345#0" to="296087693" departPos="0" departLane="best" departSpeed="5.0"/>-->
<!--<flow id="46" type="SUMO_DEFAULT_TYPE" begin="0" end="3600" number="1200" from="489819509" to="-509220141#1" departPos="0" departLane="best" departSpeed="5.0"/>-->
<!--<flow id="47" type="SUMO_DEFAULT_TYPE" begin="0" end="3600" number="800" from="421293951#1" to="222475192#2" departPos="0" departLane="best" departSpeed="5.0"/>-->
<!--<flow id="48" type="SUMO_DEFAULT_TYPE" begin="0" end="3600" number="1200" from="346585813#3" to="113467440#3" departPos="0" departLane="best" departSpeed="5.0"/>-->
<!--<flow id="49" type="SUMO_DEFAULT_TYPE" begin="0" end="3600" number="800" from="518761634" to="332493734" departPos="0" departLane="best" departSpeed="5.0"/>-->
<!--<flow id="50" type="SUMO_DEFAULT_TYPE" begin="0" end="3600" number="1200" from="489819523" to="586595640" departPos="0" departLane="best" departSpeed="5.0"/>-->
<!--<flow id="51" type="SUMO_DEFAULT_TYPE" begin="0" end="3600" number="800" from="154351779#8" to="589558022#20" departPos="0" departLane="best" departSpeed="5.0"/>-->
<!--<flow id="52" type="SUMO_DEFAULT_TYPE" begin="0" end="3600" number="1200" from="-534230664#0" to="531431468#5" departPos="0" departLane="best" departSpeed="5.0"/>-->
<!--<flow id="53" type="SUMO_DEFAULT_TYPE" begin="0" end="3600" number="800" from="-28596660#5" to="345068027#8" departPos="0" departLane="best" departSpeed="5.0"/>-->
<!--<flow id="54" type="SUMO_DEFAULT_TYPE" begin="0" end="3600" number="1200" from="587814420#3" to="154351766#2" departPos="0" departLane="best" departSpeed="5.0"/>-->
<!--<flow id="55" type="SUMO_DEFAULT_TYPE" begin="0" end="3600" number="800" from="589429910" to="509220141#1" departPos="0" departLane="best" departSpeed="5.0"/>-->
<!--<flow id="56" type="SUMO_DEFAULT_TYPE" begin="0" end="3600" number="1200" from="589429908#2" to="589380865#4" departPos="0" departLane="best" departSpeed="5.0"/>-->
<!--<flow id="57" type="SUMO_DEFAULT_TYPE" begin="0" end="3600" number="800" from="-590053409#4" to="571884285#4" departPos="0" departLane="best" departSpeed="5.0"/>-->
<!--<flow id="58" type="SUMO_DEFAULT_TYPE" begin="0" end="3600" number="1200" from="-519322344#0" to="-28596660#5" departPos="0" departLane="best" departSpeed="5.0"/>-->
<!--<flow id="59" type="SUMO_DEFAULT_TYPE" begin="0" end="3600" number="800" from="-589377313#1" to="4557618#2" departPos="0" departLane="best" departSpeed="5.0"/>-->
<!--<flow id="60" type="SUMO_DEFAULT_TYPE" begin="0" end="3600" number="1200" from="4440870" to="589569612#1" departPos="0" departLane="best" departSpeed="5.0"/>-->
<!--<flow id="61" type="SUMO_DEFAULT_TYPE" begin="0" end="3600" number="800" from="501094920#1" to="392433340#8" departPos="0" departLane="best" departSpeed="5.0"/>-->
<!--<flow id="62" type="SUMO_DEFAULT_TYPE" begin="0" end="3600" number="1200" from="589380864#0" to="548309842#2" departPos="0" departLane="best" departSpeed="5.0"/>-->
<!--<flow id="63" type="SUMO_DEFAULT_TYPE" begin="0" end="3600" number="800" from="505097816#2" to="589380849#3" departPos="0" departLane="best" departSpeed="5.0"/>-->
<!--<flow id="64" type="SUMO_DEFAULT_TYPE" begin="0" end="3600" number="1200" from="392433340#9" to="571531059#14" departPos="0" departLane="best" departSpeed="5.0"/>-->
<!--<flow id="65" type="SUMO_DEFAULT_TYPE" begin="0" end="3600" number="800" from="-589377318#9" to="581085533" departPos="0" departLane="best" departSpeed="5.0"/>-->
<!--<flow id="66" type="SUMO_DEFAULT_TYPE" begin="0" end="3600" number="1200" from="154325306" to="154360965#1" departPos="0" departLane="best" departSpeed="5.0"/>-->
<!--<flow id="67" type="SUMO_DEFAULT_TYPE" begin="0" end="3600" number="800" from="113467374#1" to="154343725#1" departPos="0" departLane="best" departSpeed="5.0"/>-->
<!--<flow id="68" type="SUMO_DEFAULT_TYPE" begin="0" end="3600" number="1200" from="509220139#2" to="154443363#0" departPos="0" departLane="best" departSpeed="5.0"/>-->
<!--<flow id="69" type="SUMO_DEFAULT_TYPE" begin="0" end="3600" number="800" from="157348583" to="-519322344#0" departPos="0" departLane="best" departSpeed="5.0"/>-->
<!--<flow id="70" type="SUMO_DEFAULT_TYPE" begin="0" end="3600" number="1200" from="589380865#3" to="576784113#1" departPos="0" departLane="best" departSpeed="5.0"/>-->
<!--<flow id="71" type="SUMO_DEFAULT_TYPE" begin="0" end="3600" number="800" from="360785524#1" to="571531059#7" departPos="0" departLane="best" departSpeed="5.0"/>-->
<!--<flow id="72" type="SUMO_DEFAULT_TYPE" begin="0" end="3600" number="1200" from="589558024#2" to="154351766#6" departPos="0" departLane="best" departSpeed="5.0"/>-->
<!--<flow id="73" type="SUMO_DEFAULT_TYPE" begin="0" end="3600" number="800" from="489800482" to="-589380849#1" departPos="0" departLane="best" departSpeed="5.0"/>-->
<!--<flow id="74" type="SUMO_DEFAULT_TYPE" begin="0" end="3600" number="1200" from="593992377" to="-28596660#2" departPos="0" departLane="best" departSpeed="5.0"/>-->
<!--<flow id="75" type="SUMO_DEFAULT_TYPE" begin="0" end="3600" number="800" from="509220150#17" to="582537679" departPos="0" departLane="best" departSpeed="5.0"/>-->
<!--<flow id="76" type="SUMO_DEFAULT_TYPE" begin="0" end="3600" number="1200" from="587814413#19" to="489826360" departPos="0" departLane="best" departSpeed="5.0"/>-->
<!--<flow id="77" type="SUMO_DEFAULT_TYPE" begin="0" end="3600" number="800" from="505097816#2" to="356766856#12" departPos="0" departLane="best" departSpeed="5.0"/>-->
<!--<flow id="78" type="SUMO_DEFAULT_TYPE" begin="0" end="3600" number="1200" from="589377315#2" to="519814570" departPos="0" departLane="best" departSpeed="5.0"/>-->
<!--<flow id="79" type="SUMO_DEFAULT_TYPE" begin="0" end="3600" number="800" from="154343707" to="595826195" departPos="0" departLane="best" departSpeed="5.0"/>-->
<!--<flow id="80" type="SUMO_DEFAULT_TYPE" begin="0" end="3600" number="1200" from="589377316#5" to="589569603#6" departPos="0" departLane="best" departSpeed="5.0"/>-->
<!--<flow id="81" type="SUMO_DEFAULT_TYPE" begin="0" end="3600" number="800" from="589377313#4" to="154343696#0" departPos="0" departLane="best" departSpeed="5.0"/>-->
<!--<flow id="82" type="SUMO_DEFAULT_TYPE" begin="0" end="3600" number="1200" from="590095714#2" to="509220150#4" departPos="0" departLane="best" departSpeed="5.0"/>-->
<!--<flow id="83" type="SUMO_DEFAULT_TYPE" begin="0" end="3600" number="800" from="154351779#11" to="589429904" departPos="0" departLane="best" departSpeed="5.0"/>-->
<!--<flow id="84" type="SUMO_DEFAULT_TYPE" begin="0" end="3600" number="1200" from="113467440#3" to="589377315#2" departPos="0" departLane="best" departSpeed="5.0"/>-->
<!--<flow id="85" type="SUMO_DEFAULT_TYPE" begin="0" end="3600" number="800" from="519322344#4" to="509220139#1" departPos="0" departLane="best" departSpeed="5.0"/>-->
<!--<flow id="86" type="SUMO_DEFAULT_TYPE" begin="0" end="3600" number="1200" from="571531059#10" to="581085527#1" departPos="0" departLane="best" departSpeed="5.0"/>-->
<!--<flow id="87" type="SUMO_DEFAULT_TYPE" begin="0" end="3600" number="800" from="-581126453" to="504563668" departPos="0" departLane="best" departSpeed="5.0"/>-->
<!--<flow id="88" type="SUMO_DEFAULT_TYPE" begin="0" end="3600" number="1200" from="187250189" to="154360972" departPos="0" departLane="best" departSpeed="5.0"/>-->
<!--<flow id="89" type="SUMO_DEFAULT_TYPE" begin="0" end="3600" number="800" from="589380865#4" to="345068027#9" departPos="0" departLane="best" departSpeed="5.0"/>-->
<!--<flow id="90" type="SUMO_DEFAULT_TYPE" begin="0" end="3600" number="1200" from="154352427#1" to="28596668#0" departPos="0" departLane="best" departSpeed="5.0"/>-->
<!--<flow id="91" type="SUMO_DEFAULT_TYPE" begin="0" end="3600" number="800" from="346585849#5" to="340648409" departPos="0" departLane="best" departSpeed="5.0"/>-->
<!--<flow id="92" type="SUMO_DEFAULT_TYPE" begin="0" end="3600" number="1200" from="436120975#2" to="534230662" departPos="0" departLane="best" departSpeed="5.0"/>-->
<!--&lt;!&ndash;<flow id="93" type="SUMO_DEFAULT_TYPE" begin="0" end="3600" number="800" from="590053379#0" to="589558022#2" departPos="0" departLane="best" departSpeed="5.0"/>&ndash;&gt;-->
<!--<flow id="94" type="SUMO_DEFAULT_TYPE" begin="0" end="3600" number="1200" from="589377313#9" to="589569606#3" departPos="0" departLane="best" departSpeed="5.0"/>-->
<!--<flow id="95" type="SUMO_DEFAULT_TYPE" begin="0" end="3600" number="800" from="5038211#1" to="587814413#21" departPos="0" departLane="best" departSpeed="5.0"/>-->
<!--<flow id="96" type="SUMO_DEFAULT_TYPE" begin="0" end="3600" number="1200" from="360785524#1" to="154260827" departPos="0" departLane="best" departSpeed="5.0"/>-->
<!--<flow id="97" type="SUMO_DEFAULT_TYPE" begin="0" end="3600" number="800" from="589377313#5" to="-118283249" departPos="0" departLane="best" departSpeed="5.0"/>-->
<!--<flow id="98" type="SUMO_DEFAULT_TYPE" begin="0" end="3600" number="1200" from="509220148#0" to="509220141#2" departPos="0" departLane="best" departSpeed="5.0"/>-->
<!--<flow id="99" type="SUMO_DEFAULT_TYPE" begin="0" end="3600" number="800" from="580693645" to="397157760" departPos="0" departLane="best" departSpeed="5.0"/>-->
<!--<flow id="100" type="SUMO_DEFAULT_TYPE" begin="0" end="3600" number="1200" from="587814420#7" to="582781440#0" departPos="0" departLane="best" departSpeed="5.0"/>-->
<!--<flow id="101" type="SUMO_DEFAULT_TYPE" begin="0" end="3600" number="800" from="519322344#0" to="590053398#0" departPos="0" departLane="best" departSpeed="5.0"/>-->
<!--<flow id="102" type="SUMO_DEFAULT_TYPE" begin="0" end="3600" number="1200" from="501094921#0" to="337620227" departPos="0" departLane="best" departSpeed="5.0"/>-->
<!--<flow id="103" type="SUMO_DEFAULT_TYPE" begin="0" end="3600" number="800" from="-548309843" to="581094203#1" departPos="0" departLane="best" departSpeed="5.0"/>-->
<!--<flow id="104" type="SUMO_DEFAULT_TYPE" begin="0" end="3600" number="1200" from="-571884283" to="-581099188" departPos="0" departLane="best" departSpeed="5.0"/>-->
<!--<flow id="105" type="SUMO_DEFAULT_TYPE" begin="0" end="3600" number="800" from="346585849#0" to="157348583" departPos="0" departLane="best" departSpeed="5.0"/>-->
<!--<flow id="106" type="SUMO_DEFAULT_TYPE" begin="0" end="3600" number="1200" from="337620223#3" to="154360965#5" departPos="0" departLane="best" departSpeed="5.0"/>-->
<!--<flow id="107" type="SUMO_DEFAULT_TYPE" begin="0" end="3600" number="800" from="590080007#0" to="356766856#1" departPos="0" departLane="best" departSpeed="5.0"/>-->
<!--<flow id="108" type="SUMO_DEFAULT_TYPE" begin="0" end="3600" number="1200" from="-589380849#9" to="-582781424#1" departPos="0" departLane="best" departSpeed="5.0"/>-->
<!--<flow id="109" type="SUMO_DEFAULT_TYPE" begin="0" end="3600" number="800" from="346585849#7" to="512999926#1" departPos="0" departLane="best" departSpeed="5.0"/>-->
<!--<flow id="110" type="SUMO_DEFAULT_TYPE" begin="0" end="3600" number="1200" from="587814413#14" to="332493734" departPos="0" departLane="best" departSpeed="5.0"/>-->
<!--<flow id="111" type="SUMO_DEFAULT_TYPE" begin="0" end="3600" number="800" from="-519322344#10" to="590053398#0" departPos="0" departLane="best" departSpeed="5.0"/>-->
<!--<flow id="112" type="SUMO_DEFAULT_TYPE" begin="0" end="3600" number="1200" from="582793733#1" to="509220142#1" departPos="0" departLane="best" departSpeed="5.0"/>-->
<!--<flow id="113" type="SUMO_DEFAULT_TYPE" begin="0" end="3600" number="800" from="-571884283" to="154260294" departPos="0" departLane="best" departSpeed="5.0"/>-->
<!--<flow id="114" type="SUMO_DEFAULT_TYPE" begin="0" end="3600" number="1200" from="331538599#1" to="539020816" departPos="0" departLane="best" departSpeed="5.0"/>-->
<!--<flow id="115" type="SUMO_DEFAULT_TYPE" begin="0" end="3600" number="800" from="-489812593" to="509220141#1" departPos="0" departLane="best" departSpeed="5.0"/>-->
<!--<flow id="116" type="SUMO_DEFAULT_TYPE" begin="0" end="3600" number="1200" from="589558022#4" to="509220150#1" departPos="0" departLane="best" departSpeed="5.0"/>-->
<!--<flow id="117" type="SUMO_DEFAULT_TYPE" begin="0" end="3600" number="800" from="154260821" to="576784113#1" departPos="0" departLane="best" departSpeed="5.0"/>-->
<!--<flow id="118" type="SUMO_DEFAULT_TYPE" begin="0" end="3600" number="1200" from="222475192#2" to="607102864#3" departPos="0" departLane="best" departSpeed="5.0"/>-->
<!--<flow id="119" type="SUMO_DEFAULT_TYPE" begin="0" end="3600" number="800" from="-582118710" to="501094920#2" departPos="0" departLane="best" departSpeed="5.0"/>-->
<!--<flow id="120" type="SUMO_DEFAULT_TYPE" begin="0" end="3600" number="1200" from="154343712#1" to="534230664#0" departPos="0" departLane="best" departSpeed="5.0"/>-->
<!--<flow id="121" type="SUMO_DEFAULT_TYPE" begin="0" end="3600" number="800" from="154260827" to="519322346#2" departPos="0" departLane="best" departSpeed="5.0"/>-->
<!--<flow id="122" type="SUMO_DEFAULT_TYPE" begin="0" end="3600" number="1200" from="590095711#0" to="589380849#6" departPos="0" departLane="best" departSpeed="5.0"/>-->
<!--<flow id="123" type="SUMO_DEFAULT_TYPE" begin="0" end="3600" number="800" from="589558022#5" to="509220149" departPos="0" departLane="best" departSpeed="5.0"/>-->
<!--<flow id="124" type="SUMO_DEFAULT_TYPE" begin="0" end="3600" number="1200" from="505097816#0" to="509220157#0" departPos="0" departLane="best" departSpeed="5.0"/>-->
<!--<flow id="125" type="SUMO_DEFAULT_TYPE" begin="0" end="3600" number="800" from="572777365" to="509220149" departPos="0" departLane="best" departSpeed="5.0"/>-->
<!--<flow id="126" type="SUMO_DEFAULT_TYPE" begin="0" end="3600" number="1200" from="614233947" to="501094920#2" departPos="0" departLane="best" departSpeed="5.0"/>-->
<!--<flow id="127" type="SUMO_DEFAULT_TYPE" begin="0" end="3600" number="800" from="154259180" to="595826197#1" departPos="0" departLane="best" departSpeed="5.0"/>-->
<!--<flow id="128" type="SUMO_DEFAULT_TYPE" begin="0" end="3600" number="1200" from="158984611#3" to="340648408" departPos="0" departLane="best" departSpeed="5.0"/>-->
<!--<flow id="129" type="SUMO_DEFAULT_TYPE" begin="0" end="3600" number="800" from="595826195" to="392433340#8" departPos="0" departLane="best" departSpeed="5.0"/>-->
<!--<flow id="130" type="SUMO_DEFAULT_TYPE" begin="0" end="3600" number="1200" from="509220150#14" to="589569606#3" departPos="0" departLane="best" departSpeed="5.0"/>-->
<!--<flow id="131" type="SUMO_DEFAULT_TYPE" begin="0" end="3600" number="800" from="154351766#6" to="590095714#0" departPos="0" departLane="best" departSpeed="5.0"/>-->
<!--<flow id="132" type="SUMO_DEFAULT_TYPE" begin="0" end="3600" number="1200" from="589429905#4" to="589377318#0" departPos="0" departLane="best" departSpeed="5.0"/>-->
<!--<flow id="133" type="SUMO_DEFAULT_TYPE" begin="0" end="3600" number="800" from="154343678#0" to="-589377318#3" departPos="0" departLane="best" departSpeed="5.0"/>-->
<!--<flow id="134" type="SUMO_DEFAULT_TYPE" begin="0" end="3600" number="1200" from="595826191#0" to="587820063#1" departPos="0" departLane="best" departSpeed="5.0"/>-->
<!--<flow id="135" type="SUMO_DEFAULT_TYPE" begin="0" end="3600" number="800" from="489075447#3" to="509220142#1" departPos="0" departLane="best" departSpeed="5.0"/>-->
<!--<flow id="136" type="SUMO_DEFAULT_TYPE" begin="0" end="3600" number="1200" from="-518761632" to="501094920#3" departPos="0" departLane="best" departSpeed="5.0"/>-->
<!--<flow id="137" type="SUMO_DEFAULT_TYPE" begin="0" end="3600" number="800" from="587814413#5" to="589569603#9" departPos="0" departLane="best" departSpeed="5.0"/>-->
<!--<flow id="138" type="SUMO_DEFAULT_TYPE" begin="0" end="3600" number="1200" from="154351779#0" to="589377313#4" departPos="0" departLane="best" departSpeed="5.0"/>-->
<!--<flow id="139" type="SUMO_DEFAULT_TYPE" begin="0" end="3600" number="800" from="-582781424#2" to="154351779#17" departPos="0" departLane="best" departSpeed="5.0"/>-->
<!--<flow id="140" type="SUMO_DEFAULT_TYPE" begin="0" end="3600" number="1200" from="-589377313#15" to="345068027#2" departPos="0" departLane="best" departSpeed="5.0"/>-->
<!--<flow id="141" type="SUMO_DEFAULT_TYPE" begin="0" end="3600" number="800" from="509220150#8" to="589377313#11" departPos="0" departLane="best" departSpeed="5.0"/>-->
<!--<flow id="142" type="SUMO_DEFAULT_TYPE" begin="0" end="3600" number="1200" from="24667447#7" to="336983476#5" departPos="0" departLane="best" departSpeed="5.0"/>-->
<!--<flow id="143" type="SUMO_DEFAULT_TYPE" begin="0" end="3600" number="800" from="518708031" to="589558022#7" departPos="0" departLane="best" departSpeed="5.0"/>-->
<!--<flow id="144" type="SUMO_DEFAULT_TYPE" begin="0" end="3600" number="1200" from="-589377313#3" to="-463456308#2" departPos="0" departLane="best" departSpeed="5.0"/>-->
<!--<flow id="145" type="SUMO_DEFAULT_TYPE" begin="0" end="3600" number="800" from="360785437#1" to="-489812592" departPos="0" departLane="best" departSpeed="5.0"/>-->
<!--<flow id="146" type="SUMO_DEFAULT_TYPE" begin="0" end="3600" number="1200" from="587814424#0" to="587814413#0" departPos="0" departLane="best" departSpeed="5.0"/>-->
<!--<flow id="147" type="SUMO_DEFAULT_TYPE" begin="0" end="3600" number="800" from="534230662" to="581094185#0" departPos="0" departLane="best" departSpeed="5.0"/>-->
<!--<flow id="148" type="SUMO_DEFAULT_TYPE" begin="0" end="3600" number="1200" from="590080002#0" to="576784116#1" departPos="0" departLane="best" departSpeed="5.0"/>-->
<!--<flow id="149" type="SUMO_DEFAULT_TYPE" begin="0" end="3600" number="800" from="581085535#3" to="582537682" departPos="0" departLane="best" departSpeed="5.0"/>-->
<!--<flow id="150" type="SUMO_DEFAULT_TYPE" begin="0" end="3600" number="1200" from="547712191" to="539974771" departPos="0" departLane="best" departSpeed="5.0"/>-->
<!--<flow id="151" type="SUMO_DEFAULT_TYPE" begin="0" end="3600" number="800" from="-534230664#0" to="154351766#13" departPos="0" departLane="best" departSpeed="5.0"/>-->
<!--<flow id="152" type="SUMO_DEFAULT_TYPE" begin="0" end="3600" number="1200" from="501094921#3" to="501094921#6" departPos="0" departLane="best" departSpeed="5.0"/>-->
<!--<flow id="153" type="SUMO_DEFAULT_TYPE" begin="0" end="3600" number="800" from="509220166" to="158984616#1" departPos="0" departLane="best" departSpeed="5.0"/>-->
<!--<flow id="154" type="SUMO_DEFAULT_TYPE" begin="0" end="3600" number="1200" from="589380865#0" to="346585811#7" departPos="0" departLane="best" departSpeed="5.0"/>-->
<!--<flow id="155" type="SUMO_DEFAULT_TYPE" begin="0" end="3600" number="800" from="509220150#1" to="346585811#7" departPos="0" departLane="best" departSpeed="5.0"/>-->
<!--<flow id="156" type="SUMO_DEFAULT_TYPE" begin="0" end="3600" number="1200" from="509220148#2" to="154260291" departPos="0" departLane="best" departSpeed="5.0"/>-->
<!--<flow id="157" type="SUMO_DEFAULT_TYPE" begin="0" end="3600" number="800" from="158374223" to="421293951#3" departPos="0" departLane="best" departSpeed="5.0"/>-->
<!--<flow id="158" type="SUMO_DEFAULT_TYPE" begin="0" end="3600" number="1200" from="586565990" to="534230664#0" departPos="0" departLane="best" departSpeed="5.0"/>-->
<!--<flow id="159" type="SUMO_DEFAULT_TYPE" begin="0" end="3600" number="800" from="518708026" to="29980555" departPos="0" departLane="best" departSpeed="5.0"/>-->
<!--<flow id="160" type="SUMO_DEFAULT_TYPE" begin="0" end="3600" number="1200" from="340648407" to="501094920#6" departPos="0" departLane="best" departSpeed="5.0"/>-->
<!--<flow id="161" type="SUMO_DEFAULT_TYPE" begin="0" end="3600" number="800" from="518744912" to="332493729#0" departPos="0" departLane="best" departSpeed="5.0"/>-->
<!--<flow id="162" type="SUMO_DEFAULT_TYPE" begin="0" end="3600" number="1200" from="-581066292" to="589569606#0" departPos="0" departLane="best" departSpeed="5.0"/>-->
<!--<flow id="163" type="SUMO_DEFAULT_TYPE" begin="0" end="3600" number="800" from="154261657" to="571531059#11" departPos="0" departLane="best" departSpeed="5.0"/>-->
<!--<flow id="164" type="SUMO_DEFAULT_TYPE" begin="0" end="3600" number="1200" from="589377316#2" to="509220140#0" departPos="0" departLane="best" departSpeed="5.0"/>-->
<!--<flow id="165" type="SUMO_DEFAULT_TYPE" begin="0" end="3600" number="800" from="337620221" to="356766856#11" departPos="0" departLane="best" departSpeed="5.0"/>-->
<!--<flow id="166" type="SUMO_DEFAULT_TYPE" begin="0" end="3600" number="1200" from="519322344#8" to="337620225#1" departPos="0" departLane="best" departSpeed="5.0"/>-->
<!--<flow id="167" type="SUMO_DEFAULT_TYPE" begin="0" end="3600" number="800" from="-154141994#1" to="346585811#7" departPos="0" departLane="best" departSpeed="5.0"/>-->
<!--<flow id="168" type="SUMO_DEFAULT_TYPE" begin="0" end="3600" number="1200" from="154443343" to="589377313#1" departPos="0" departLane="best" departSpeed="5.0"/>-->
<!--<flow id="169" type="SUMO_DEFAULT_TYPE" begin="0" end="3600" number="800" from="525071743" to="587820068#2" departPos="0" departLane="best" departSpeed="5.0"/>-->
<!--<flow id="170" type="SUMO_DEFAULT_TYPE" begin="0" end="3600" number="1200" from="589569612#0" to="582793776" departPos="0" departLane="best" departSpeed="5.0"/>-->
<!--<flow id="171" type="SUMO_DEFAULT_TYPE" begin="0" end="3600" number="800" from="589377313#8" to="539020813" departPos="0" departLane="best" departSpeed="5.0"/>-->
<!--<flow id="172" type="SUMO_DEFAULT_TYPE" begin="0" end="3600" number="1200" from="154352427#2" to="346585813#5" departPos="0" departLane="best" departSpeed="5.0"/>-->
<!--<flow id="173" type="SUMO_DEFAULT_TYPE" begin="0" end="3600" number="800" from="501094921#7" to="590060030#2" departPos="0" departLane="best" departSpeed="5.0"/>-->
<!--<flow id="174" type="SUMO_DEFAULT_TYPE" begin="0" end="3600" number="1200" from="356718221#0" to="-337620219#1" departPos="0" departLane="best" departSpeed="5.0"/>-->
<!--<flow id="175" type="SUMO_DEFAULT_TYPE" begin="0" end="3600" number="800" from="581139445" to="154351779#2" departPos="0" departLane="best" departSpeed="5.0"/>-->
<!--<flow id="176" type="SUMO_DEFAULT_TYPE" begin="0" end="3600" number="1200" from="590060030#2" to="501094920#9" departPos="0" departLane="best" departSpeed="5.0"/>-->
<!--<flow id="177" type="SUMO_DEFAULT_TYPE" begin="0" end="3600" number="800" from="589377315#3" to="-581132503" departPos="0" departLane="best" departSpeed="5.0"/>-->