<routes xmlns:xsi="http://www.w3.org/2001/XMLSchema-instance" xsi:noNamespaceSchemaLocation="http://sumo.dlr.de/xsd/routes_file.xsd">
    <vType id="SUMO_DEFAULT_TYPE" accel="0.8" decel="4.5" sigma="0" length="5" minGap="2" maxSpeed="70"/>

<flow id="0" type="SUMO_DEFAULT_TYPE" begin="0" end="3600" number="1200" from="-28596660#1" to="489826389" departPos="0" departLane="best" departSpeed="5.0"/>
<flow id="1" type="SUMO_DEFAULT_TYPE" begin="0" end="3600" number="800" from="587814420#3" to="296531347#1" departPos="0" departLane="best" departSpeed="5.0"/>
<flow id="2" type="SUMO_DEFAULT_TYPE" begin="0" end="3600" number="1200" from="-356718213#2" to="298822198#2" departPos="0" departLane="best" departSpeed="5.0"/>
<flow id="3" type="SUMO_DEFAULT_TYPE" begin="0" end="3600" number="800" from="489071256#1" to="509220150#14" departPos="0" departLane="best" departSpeed="5.0"/>
<flow id="4" type="SUMO_DEFAULT_TYPE" begin="0" end="3600" number="1200" from="-430812032#0" to="-421293950#4" departPos="0" departLane="best" departSpeed="5.0"/>
<flow id="5" type="SUMO_DEFAULT_TYPE" begin="0" end="3600" number="800" from="-535404742#1" to="590095714#0" departPos="0" departLane="best" departSpeed="5.0"/>
<flow id="6" type="SUMO_DEFAULT_TYPE" begin="0" end="3600" number="1200" from="589569603#0" to="298822789#4" departPos="0" departLane="best" departSpeed="5.0"/>
<flow id="7" type="SUMO_DEFAULT_TYPE" begin="0" end="3600" number="800" from="-356718208" to="-586374922#0" departPos="0" departLane="best" departSpeed="5.0"/>
<flow id="8" type="SUMO_DEFAULT_TYPE" begin="0" end="3600" number="1200" from="-154508895#1" to="501094921#4" departPos="0" departLane="best" departSpeed="5.0"/>
<flow id="9" type="SUMO_DEFAULT_TYPE" begin="0" end="3600" number="800" from="-522150722#2" to="346585811#7" departPos="0" departLane="best" departSpeed="5.0"/>
<flow id="10" type="SUMO_DEFAULT_TYPE" begin="0" end="3600" number="1200" from="602639297#2" to="-338489373" departPos="0" departLane="best" departSpeed="5.0"/>
<flow id="11" type="SUMO_DEFAULT_TYPE" begin="0" end="3600" number="800" from="-339169299#6" to="24667447#11" departPos="0" departLane="best" departSpeed="5.0"/>
<flow id="12" type="SUMO_DEFAULT_TYPE" begin="0" end="3600" number="1200" from="154351766#3" to="344066889#0" departPos="0" departLane="best" departSpeed="5.0"/>
<flow id="13" type="SUMO_DEFAULT_TYPE" begin="0" end="3600" number="800" from="489826383#1" to="589429911#1" departPos="0" departLane="best" departSpeed="5.0"/>
<flow id="14" type="SUMO_DEFAULT_TYPE" begin="0" end="3600" number="1200" from="113467381#0" to="-388470139#1" departPos="0" departLane="best" departSpeed="5.0"/>
<flow id="15" type="SUMO_DEFAULT_TYPE" begin="0" end="3600" number="800" from="113467381#5" to="522168392#0" departPos="0" departLane="best" departSpeed="5.0"/>
<flow id="16" type="SUMO_DEFAULT_TYPE" begin="0" end="3600" number="1200" from="-519322344#2" to="-346585822" departPos="0" departLane="best" departSpeed="5.0"/>
<flow id="17" type="SUMO_DEFAULT_TYPE" begin="0" end="3600" number="800" from="602639299#0" to="-590060001#2" departPos="0" departLane="best" departSpeed="5.0"/>
<flow id="18" type="SUMO_DEFAULT_TYPE" begin="0" end="3600" number="1200" from="489826379#1" to="-168951298#3" departPos="0" departLane="best" departSpeed="5.0"/>
<flow id="19" type="SUMO_DEFAULT_TYPE" begin="0" end="3600" number="800" from="532920371#0" to="-113467478#3" departPos="0" departLane="best" departSpeed="5.0"/>
<flow id="20" type="SUMO_DEFAULT_TYPE" begin="0" end="3600" number="1200" from="-544075662" to="585016599#0" departPos="0" departLane="best" departSpeed="5.0"/>
<!--<flow id="21" type="SUMO_DEFAULT_TYPE" begin="0" end="3600" number="800" from="157967264#2" to="392433340#7" departPos="0" departLane="best" departSpeed="5.0"/>-->
<!--<flow id="22" type="SUMO_DEFAULT_TYPE" begin="0" end="3600" number="1200" from="154351779#2" to="-541904534" departPos="0" departLane="best" departSpeed="5.0"/>-->
<!--<flow id="23" type="SUMO_DEFAULT_TYPE" begin="0" end="3600" number="800" from="501094920#6" to="356718219#0" departPos="0" departLane="best" departSpeed="5.0"/>-->
<!--<flow id="24" type="SUMO_DEFAULT_TYPE" begin="0" end="3600" number="1200" from="356718231#4" to="-420014178#1" departPos="0" departLane="best" departSpeed="5.0"/>-->
<!--<flow id="25" type="SUMO_DEFAULT_TYPE" begin="0" end="3600" number="800" from="-113467431#3" to="-489073157" departPos="0" departLane="best" departSpeed="5.0"/>-->
<!--<flow id="26" type="SUMO_DEFAULT_TYPE" begin="0" end="3600" number="1200" from="-420014173#1" to="608641870" departPos="0" departLane="best" departSpeed="5.0"/>-->
<!--<flow id="27" type="SUMO_DEFAULT_TYPE" begin="0" end="3600" number="800" from="489826373#2" to="516819726#1" departPos="0" departLane="best" departSpeed="5.0"/>-->
<!--<flow id="28" type="SUMO_DEFAULT_TYPE" begin="0" end="3600" number="1200" from="590053411#0" to="509220166" departPos="0" departLane="best" departSpeed="5.0"/>-->
<!--<flow id="29" type="SUMO_DEFAULT_TYPE" begin="0" end="3600" number="800" from="519322344#3" to="306360727#0" departPos="0" departLane="best" departSpeed="5.0"/>-->
<!--<flow id="30" type="SUMO_DEFAULT_TYPE" begin="0" end="3600" number="1200" from="581094187#0" to="346585811#5" departPos="0" departLane="best" departSpeed="5.0"/>-->
<!--<flow id="31" type="SUMO_DEFAULT_TYPE" begin="0" end="3600" number="800" from="535400199" to="113467478#1" departPos="0" departLane="best" departSpeed="5.0"/>-->
<!--<flow id="32" type="SUMO_DEFAULT_TYPE" begin="0" end="3600" number="1200" from="589569607#0" to="168876051" departPos="0" departLane="best" departSpeed="5.0"/>-->
<!--<flow id="33" type="SUMO_DEFAULT_TYPE" begin="0" end="3600" number="800" from="161517296#1" to="587814415#1" departPos="0" departLane="best" departSpeed="5.0"/>-->
<!--<flow id="34" type="SUMO_DEFAULT_TYPE" begin="0" end="3600" number="1200" from="516819732#1" to="154084862#1" departPos="0" departLane="best" departSpeed="5.0"/>-->
<!--<flow id="35" type="SUMO_DEFAULT_TYPE" begin="0" end="3600" number="800" from="582781419#2" to="489071256#2" departPos="0" departLane="best" departSpeed="5.0"/>-->
<!--<flow id="36" type="SUMO_DEFAULT_TYPE" begin="0" end="3600" number="1200" from="-522168359#2" to="-489826371#0" departPos="0" departLane="best" departSpeed="5.0"/>-->
<!--<flow id="37" type="SUMO_DEFAULT_TYPE" begin="0" end="3600" number="800" from="113467460#0" to="519322371#1" departPos="0" departLane="best" departSpeed="5.0"/>-->
<!--<flow id="38" type="SUMO_DEFAULT_TYPE" begin="0" end="3600" number="1200" from="388464245" to="421293960#3" departPos="0" departLane="best" departSpeed="5.0"/>-->
<!--<flow id="39" type="SUMO_DEFAULT_TYPE" begin="0" end="3600" number="800" from="222475179#1" to="533568480" departPos="0" departLane="best" departSpeed="5.0"/>-->
<!--<flow id="40" type="SUMO_DEFAULT_TYPE" begin="0" end="3600" number="1200" from="479448127" to="154124070#8" departPos="0" departLane="best" departSpeed="5.0"/>-->
<!--<flow id="41" type="SUMO_DEFAULT_TYPE" begin="0" end="3600" number="800" from="608641851" to="157967261#2" departPos="0" departLane="best" departSpeed="5.0"/>-->
<!--<flow id="42" type="SUMO_DEFAULT_TYPE" begin="0" end="3600" number="1200" from="421293951#0" to="541904538#1" departPos="0" departLane="best" departSpeed="5.0"/>-->
<!--<flow id="43" type="SUMO_DEFAULT_TYPE" begin="0" end="3600" number="800" from="589560993#5" to="-586031549#2" departPos="0" departLane="best" departSpeed="5.0"/>-->
<!--<flow id="44" type="SUMO_DEFAULT_TYPE" begin="0" end="3600" number="1200" from="589569603#3" to="434864893#0" departPos="0" departLane="best" departSpeed="5.0"/>-->
<!--<flow id="45" type="SUMO_DEFAULT_TYPE" begin="0" end="3600" number="800" from="-585017407" to="519955929#2" departPos="0" departLane="best" departSpeed="5.0"/>-->
<!--<flow id="46" type="SUMO_DEFAULT_TYPE" begin="0" end="3600" number="1200" from="338339385#4" to="-489826373#7" departPos="0" departLane="best" departSpeed="5.0"/>-->
<!--<flow id="47" type="SUMO_DEFAULT_TYPE" begin="0" end="3600" number="800" from="-154438567#3" to="154352426#13" departPos="0" departLane="best" departSpeed="5.0"/>-->
<!--<flow id="48" type="SUMO_DEFAULT_TYPE" begin="0" end="3600" number="1200" from="589560993#1" to="356718207" departPos="0" departLane="best" departSpeed="5.0"/>-->
<!--<flow id="49" type="SUMO_DEFAULT_TYPE" begin="0" end="3600" number="800" from="168951299#3" to="590095690#1" departPos="0" departLane="best" departSpeed="5.0"/>-->
<!--<flow id="50" type="SUMO_DEFAULT_TYPE" begin="0" end="3600" number="1200" from="489797907#1" to="-519650757#2" departPos="0" departLane="best" departSpeed="5.0"/>-->
<!--<flow id="51" type="SUMO_DEFAULT_TYPE" begin="0" end="3600" number="800" from="113467470#5" to="329616113#0" departPos="0" departLane="best" departSpeed="5.0"/>-->
<!--<flow id="52" type="SUMO_DEFAULT_TYPE" begin="0" end="3600" number="1200" from="-434864895#4" to="-356767463#0" departPos="0" departLane="best" departSpeed="5.0"/>-->
<!--<flow id="53" type="SUMO_DEFAULT_TYPE" begin="0" end="3600" number="800" from="590060015#1" to="-601252880#3" departPos="0" departLane="best" departSpeed="5.0"/>-->
<!--<flow id="54" type="SUMO_DEFAULT_TYPE" begin="0" end="3600" number="1200" from="615177145#1" to="-587814427#1" departPos="0" departLane="best" departSpeed="5.0"/>-->
<!--<flow id="55" type="SUMO_DEFAULT_TYPE" begin="0" end="3600" number="800" from="329616093" to="421293960#2" departPos="0" departLane="best" departSpeed="5.0"/>-->
<!--<flow id="56" type="SUMO_DEFAULT_TYPE" begin="0" end="3600" number="1200" from="154261652" to="582149993" departPos="0" departLane="best" departSpeed="5.0"/>-->
<!--<flow id="57" type="SUMO_DEFAULT_TYPE" begin="0" end="3600" number="800" from="541904464" to="158984611#1" departPos="0" departLane="best" departSpeed="5.0"/>-->
<!--<flow id="58" type="SUMO_DEFAULT_TYPE" begin="0" end="3600" number="1200" from="-420014185#1" to="-419260508" departPos="0" departLane="best" departSpeed="5.0"/>-->
<!--<flow id="59" type="SUMO_DEFAULT_TYPE" begin="0" end="3600" number="800" from="154351766#6" to="420014180" departPos="0" departLane="best" departSpeed="5.0"/>-->
<!--<flow id="60" type="SUMO_DEFAULT_TYPE" begin="0" end="3600" number="1200" from="-421293959#5" to="519644296#1" departPos="0" departLane="best" departSpeed="5.0"/>-->
<!--<flow id="61" type="SUMO_DEFAULT_TYPE" begin="0" end="3600" number="800" from="589380864#1" to="-389018537#1" departPos="0" departLane="best" departSpeed="5.0"/>-->
<!--<flow id="62" type="SUMO_DEFAULT_TYPE" begin="0" end="3600" number="1200" from="544075661#1" to="-608641895" departPos="0" departLane="best" departSpeed="5.0"/>-->
<!--<flow id="63" type="SUMO_DEFAULT_TYPE" begin="0" end="3600" number="800" from="-608641886" to="345071357" departPos="0" departLane="best" departSpeed="5.0"/>-->
<!--<flow id="64" type="SUMO_DEFAULT_TYPE" begin="0" end="3600" number="1200" from="501094922#0" to="-516819722#4" departPos="0" departLane="best" departSpeed="5.0"/>-->
<!--<flow id="65" type="SUMO_DEFAULT_TYPE" begin="0" end="3600" number="800" from="154352426#12" to="545008868#3" departPos="0" departLane="best" departSpeed="5.0"/>-->
<!--<flow id="66" type="SUMO_DEFAULT_TYPE" begin="0" end="3600" number="1200" from="-587814426#2" to="-489826387#0" departPos="0" departLane="best" departSpeed="5.0"/>-->
<!--<flow id="67" type="SUMO_DEFAULT_TYPE" begin="0" end="3600" number="800" from="-509220134" to="486377871#2" departPos="0" departLane="best" departSpeed="5.0"/>-->
<!--<flow id="68" type="SUMO_DEFAULT_TYPE" begin="0" end="3600" number="1200" from="-586031549#0" to="-489071256#1" departPos="0" departLane="best" departSpeed="5.0"/>-->
<!--<flow id="69" type="SUMO_DEFAULT_TYPE" begin="0" end="3600" number="800" from="434864893#8" to="-489826392" departPos="0" departLane="best" departSpeed="5.0"/>-->
<!--<flow id="70" type="SUMO_DEFAULT_TYPE" begin="0" end="3600" number="1200" from="-154443346#1" to="-509220163#4" departPos="0" departLane="best" departSpeed="5.0"/>-->
<!--<flow id="71" type="SUMO_DEFAULT_TYPE" begin="0" end="3600" number="800" from="356718231#5" to="489826378#0" departPos="0" departLane="best" departSpeed="5.0"/>-->
<!--<flow id="72" type="SUMO_DEFAULT_TYPE" begin="0" end="3600" number="1200" from="-28596660#2" to="340648409" departPos="0" departLane="best" departSpeed="5.0"/>-->
<!--<flow id="73" type="SUMO_DEFAULT_TYPE" begin="0" end="3600" number="800" from="-522150725#0" to="222475177#1" departPos="0" departLane="best" departSpeed="5.0"/>-->
<!--<flow id="74" type="SUMO_DEFAULT_TYPE" begin="0" end="3600" number="1200" from="-589560993#3" to="337620190#1" departPos="0" departLane="best" departSpeed="5.0"/>-->
<!--<flow id="75" type="SUMO_DEFAULT_TYPE" begin="0" end="3600" number="800" from="168876051" to="509220148#3" departPos="0" departLane="best" departSpeed="5.0"/>-->
<!--<flow id="76" type="SUMO_DEFAULT_TYPE" begin="0" end="3600" number="1200" from="509220150#18" to="519644299" departPos="0" departLane="best" departSpeed="5.0"/>-->
<!--<flow id="77" type="SUMO_DEFAULT_TYPE" begin="0" end="3600" number="800" from="154343731" to="154343724#11" departPos="0" departLane="best" departSpeed="5.0"/>-->
<!--<flow id="78" type="SUMO_DEFAULT_TYPE" begin="0" end="3600" number="1200" from="614214455#1" to="580702973#1" departPos="0" departLane="best" departSpeed="5.0"/>-->
<!--<flow id="79" type="SUMO_DEFAULT_TYPE" begin="0" end="3600" number="800" from="298822198#11" to="535400201#1" departPos="0" departLane="best" departSpeed="5.0"/>-->
<!--<flow id="80" type="SUMO_DEFAULT_TYPE" begin="0" end="3600" number="1200" from="392433340#4" to="-614214455#0" departPos="0" departLane="best" departSpeed="5.0"/>-->
<!--<flow id="81" type="SUMO_DEFAULT_TYPE" begin="0" end="3600" number="800" from="539974770#1" to="29169673#0" departPos="0" departLane="best" departSpeed="5.0"/>-->
<!--<flow id="82" type="SUMO_DEFAULT_TYPE" begin="0" end="3600" number="1200" from="489826371#0" to="388018770" departPos="0" departLane="best" departSpeed="5.0"/>-->
<!--<flow id="83" type="SUMO_DEFAULT_TYPE" begin="0" end="3600" number="800" from="421293950#5" to="356766859#2" departPos="0" departLane="best" departSpeed="5.0"/>-->
<!--<flow id="84" type="SUMO_DEFAULT_TYPE" begin="0" end="3600" number="1200" from="154351779#7" to="113467478#19" departPos="0" departLane="best" departSpeed="5.0"/>-->
<!--<flow id="85" type="SUMO_DEFAULT_TYPE" begin="0" end="3600" number="800" from="154351789#3" to="154334340#0" departPos="0" departLane="best" departSpeed="5.0"/>-->
<!--<flow id="86" type="SUMO_DEFAULT_TYPE" begin="0" end="3600" number="1200" from="-518703669#2" to="329613798#1" departPos="0" departLane="best" departSpeed="5.0"/>-->
<!--<flow id="87" type="SUMO_DEFAULT_TYPE" begin="0" end="3600" number="800" from="-489826379#1" to="-338995635#3" departPos="0" departLane="best" departSpeed="5.0"/>-->
<!--<flow id="88" type="SUMO_DEFAULT_TYPE" begin="0" end="3600" number="1200" from="501094916#1" to="113467542#0" departPos="0" departLane="best" departSpeed="5.0"/>-->
<!--<flow id="89" type="SUMO_DEFAULT_TYPE" begin="0" end="3600" number="800" from="154084863" to="329616104#1" departPos="0" departLane="best" departSpeed="5.0"/>-->
<!--<flow id="90" type="SUMO_DEFAULT_TYPE" begin="0" end="3600" number="1200" from="522168392#0" to="420014176#7" departPos="0" departLane="best" departSpeed="5.0"/>-->
<!--<flow id="91" type="SUMO_DEFAULT_TYPE" begin="0" end="3600" number="800" from="-154973093#1" to="589558022#5" departPos="0" departLane="best" departSpeed="5.0"/>-->
<!--<flow id="92" type="SUMO_DEFAULT_TYPE" begin="0" end="3600" number="1200" from="421293950#5" to="527571026" departPos="0" departLane="best" departSpeed="5.0"/>-->
<!--<flow id="93" type="SUMO_DEFAULT_TYPE" begin="0" end="3600" number="800" from="421293950#2" to="-479448127" departPos="0" departLane="best" departSpeed="5.0"/>-->
<!--<flow id="94" type="SUMO_DEFAULT_TYPE" begin="0" end="3600" number="1200" from="-157967261#2" to="589569616#0" departPos="0" departLane="best" departSpeed="5.0"/>-->
<!--<flow id="95" type="SUMO_DEFAULT_TYPE" begin="0" end="3600" number="800" from="-420014177#2" to="346585811#0" departPos="0" departLane="best" departSpeed="5.0"/>-->
<!--<flow id="96" type="SUMO_DEFAULT_TYPE" begin="0" end="3600" number="1200" from="154334321" to="392752196#1" departPos="0" departLane="best" departSpeed="5.0"/>-->
<!--<flow id="97" type="SUMO_DEFAULT_TYPE" begin="0" end="3600" number="800" from="539972521#0" to="158984617" departPos="0" departLane="best" departSpeed="5.0"/>-->
<!--<flow id="98" type="SUMO_DEFAULT_TYPE" begin="0" end="3600" number="1200" from="589560993#1" to="113467376#2" departPos="0" departLane="best" departSpeed="5.0"/>-->
<!--<flow id="99" type="SUMO_DEFAULT_TYPE" begin="0" end="3600" number="800" from="-582793720#2" to="589569606#2" departPos="0" departLane="best" departSpeed="5.0"/>-->
<!--<flow id="100" type="SUMO_DEFAULT_TYPE" begin="0" end="3600" number="1200" from="329616097#0" to="421293950#1" departPos="0" departLane="best" departSpeed="5.0"/>-->
<!--<flow id="101" type="SUMO_DEFAULT_TYPE" begin="0" end="3600" number="800" from="154124059#0" to="525336574#2" departPos="0" departLane="best" departSpeed="5.0"/>-->
<!--<flow id="102" type="SUMO_DEFAULT_TYPE" begin="0" end="3600" number="1200" from="-525332589#1" to="489826371#9" departPos="0" departLane="best" departSpeed="5.0"/>-->
<!--<flow id="103" type="SUMO_DEFAULT_TYPE" begin="0" end="3600" number="800" from="306360738" to="195526312#0" departPos="0" departLane="best" departSpeed="5.0"/>-->
<!--<flow id="104" type="SUMO_DEFAULT_TYPE" begin="0" end="3600" number="1200" from="-582090767" to="-154124064#5" departPos="0" departLane="best" departSpeed="5.0"/>-->
<!--<flow id="105" type="SUMO_DEFAULT_TYPE" begin="0" end="3600" number="800" from="344066889#1" to="535400206" departPos="0" departLane="best" departSpeed="5.0"/>-->
<!--<flow id="106" type="SUMO_DEFAULT_TYPE" begin="0" end="3600" number="1200" from="-479207503#1" to="-113467478#5" departPos="0" departLane="best" departSpeed="5.0"/>-->
<!--<flow id="107" type="SUMO_DEFAULT_TYPE" begin="0" end="3600" number="800" from="608236331#1" to="173153809#3" departPos="0" departLane="best" departSpeed="5.0"/>-->
<!--<flow id="108" type="SUMO_DEFAULT_TYPE" begin="0" end="3600" number="1200" from="589380864#5" to="344066881" departPos="0" departLane="best" departSpeed="5.0"/>-->
<!--<flow id="109" type="SUMO_DEFAULT_TYPE" begin="0" end="3600" number="800" from="154443363#0" to="-615177153" departPos="0" departLane="best" departSpeed="5.0"/>-->
<!--<flow id="110" type="SUMO_DEFAULT_TYPE" begin="0" end="3600" number="1200" from="-589565772#1" to="-522150715#1" departPos="0" departLane="best" departSpeed="5.0"/>-->
<!--<flow id="111" type="SUMO_DEFAULT_TYPE" begin="0" end="3600" number="800" from="589377316#3" to="-535400204" departPos="0" departLane="best" departSpeed="5.0"/>-->
<!--<flow id="112" type="SUMO_DEFAULT_TYPE" begin="0" end="3600" number="1200" from="-516819722#0" to="585016600#0" departPos="0" departLane="best" departSpeed="5.0"/>-->
<!--<flow id="113" type="SUMO_DEFAULT_TYPE" begin="0" end="3600" number="800" from="338995630#0" to="339169299#1" departPos="0" departLane="best" departSpeed="5.0"/>-->
<!--<flow id="114" type="SUMO_DEFAULT_TYPE" begin="0" end="3600" number="1200" from="-489071263" to="340388832" departPos="0" departLane="best" departSpeed="5.0"/>-->
<!--<flow id="115" type="SUMO_DEFAULT_TYPE" begin="0" end="3600" number="800" from="-582090768" to="-338477436#2" departPos="0" departLane="best" departSpeed="5.0"/>-->
<!--<flow id="116" type="SUMO_DEFAULT_TYPE" begin="0" end="3600" number="1200" from="296531350" to="-518703669#3" departPos="0" departLane="best" departSpeed="5.0"/>-->
<!--<flow id="117" type="SUMO_DEFAULT_TYPE" begin="0" end="3600" number="800" from="-541904533#0" to="-489071257#2" departPos="0" departLane="best" departSpeed="5.0"/>-->
<!--<flow id="118" type="SUMO_DEFAULT_TYPE" begin="0" end="3600" number="1200" from="501095027#0" to="-545008868#1" departPos="0" departLane="best" departSpeed="5.0"/>-->
<!--<flow id="119" type="SUMO_DEFAULT_TYPE" begin="0" end="3600" number="800" from="-614214453" to="154124065" departPos="0" departLane="best" departSpeed="5.0"/>-->
<!--<flow id="120" type="SUMO_DEFAULT_TYPE" begin="0" end="3600" number="1200" from="157967162#0" to="-582149996#1" departPos="0" departLane="best" departSpeed="5.0"/>-->
<!--<flow id="121" type="SUMO_DEFAULT_TYPE" begin="0" end="3600" number="800" from="329613798#0" to="-338995630#0" departPos="0" departLane="best" departSpeed="5.0"/>-->
<!--<flow id="122" type="SUMO_DEFAULT_TYPE" begin="0" end="3600" number="1200" from="-161517296#3" to="589377313#3" departPos="0" departLane="best" departSpeed="5.0"/>-->
<!--<flow id="123" type="SUMO_DEFAULT_TYPE" begin="0" end="3600" number="800" from="-516815096" to="346586011#5" departPos="0" departLane="best" departSpeed="5.0"/>-->
<!--<flow id="124" type="SUMO_DEFAULT_TYPE" begin="0" end="3600" number="1200" from="-519644296#1" to="581085527#1" departPos="0" departLane="best" departSpeed="5.0"/>-->
<!--<flow id="125" type="SUMO_DEFAULT_TYPE" begin="0" end="3600" number="800" from="421293960#1" to="-489071262#0" departPos="0" departLane="best" departSpeed="5.0"/>-->
<!--<flow id="126" type="SUMO_DEFAULT_TYPE" begin="0" end="3600" number="1200" from="-423409770" to="611833239#1" departPos="0" departLane="best" departSpeed="5.0"/>-->
<!--<flow id="127" type="SUMO_DEFAULT_TYPE" begin="0" end="3600" number="800" from="589576519" to="522168394#1" departPos="0" departLane="best" departSpeed="5.0"/>-->
<!--<flow id="128" type="SUMO_DEFAULT_TYPE" begin="0" end="3600" number="1200" from="-113467478#9" to="519639853#0" departPos="0" departLane="best" departSpeed="5.0"/>-->
<!--<flow id="129" type="SUMO_DEFAULT_TYPE" begin="0" end="3600" number="800" from="-533706444#0" to="501094920#0" departPos="0" departLane="best" departSpeed="5.0"/>-->
<!--<flow id="130" type="SUMO_DEFAULT_TYPE" begin="0" end="3600" number="1200" from="329616101#0" to="173153811#2" departPos="0" departLane="best" departSpeed="5.0"/>-->
<!--<flow id="131" type="SUMO_DEFAULT_TYPE" begin="0" end="3600" number="800" from="595826197#0" to="-519322344#1" departPos="0" departLane="best" departSpeed="5.0"/>-->
<!--<flow id="132" type="SUMO_DEFAULT_TYPE" begin="0" end="3600" number="1200" from="605022094#0" to="-113467553#3" departPos="0" departLane="best" departSpeed="5.0"/>-->
<!--<flow id="133" type="SUMO_DEFAULT_TYPE" begin="0" end="3600" number="800" from="-489826381#1" to="437408019#1" departPos="0" departLane="best" departSpeed="5.0"/>-->
<!--<flow id="134" type="SUMO_DEFAULT_TYPE" begin="0" end="3600" number="1200" from="222475174" to="602639297#1" departPos="0" departLane="best" departSpeed="5.0"/>-->
<!--<flow id="135" type="SUMO_DEFAULT_TYPE" begin="0" end="3600" number="800" from="173153809#3" to="653732135#1" departPos="0" departLane="best" departSpeed="5.0"/>-->
<!--<flow id="136" type="SUMO_DEFAULT_TYPE" begin="0" end="3600" number="1200" from="653732141#0" to="-345068025#0" departPos="0" departLane="best" departSpeed="5.0"/>-->
<!--<flow id="137" type="SUMO_DEFAULT_TYPE" begin="0" end="3600" number="800" from="306360726#4" to="420014172#1" departPos="0" departLane="best" departSpeed="5.0"/>-->
<!--<flow id="138" type="SUMO_DEFAULT_TYPE" begin="0" end="3600" number="1200" from="356718223" to="421293958" departPos="0" departLane="best" departSpeed="5.0"/>-->
<!--<flow id="139" type="SUMO_DEFAULT_TYPE" begin="0" end="3600" number="800" from="489826378#1" to="-516819725#2" departPos="0" departLane="best" departSpeed="5.0"/>-->
<!--<flow id="140" type="SUMO_DEFAULT_TYPE" begin="0" end="3600" number="1200" from="337620200#8" to="-338477436#1" departPos="0" departLane="best" departSpeed="5.0"/>-->
<!--<flow id="141" type="SUMO_DEFAULT_TYPE" begin="0" end="3600" number="800" from="525332590#2" to="-509220141#1" departPos="0" departLane="best" departSpeed="5.0"/>-->
<!--<flow id="142" type="SUMO_DEFAULT_TYPE" begin="0" end="3600" number="1200" from="-113467478#1" to="544075642#1" departPos="0" departLane="best" departSpeed="5.0"/>-->
<!--<flow id="143" type="SUMO_DEFAULT_TYPE" begin="0" end="3600" number="800" from="509220150#12" to="-337801225#0" departPos="0" departLane="best" departSpeed="5.0"/>-->
<!--<flow id="144" type="SUMO_DEFAULT_TYPE" begin="0" end="3600" number="1200" from="329616099" to="-534403818#0" departPos="0" departLane="best" departSpeed="5.0"/>-->
<!--<flow id="145" type="SUMO_DEFAULT_TYPE" begin="0" end="3600" number="800" from="356904149#1" to="-501095030" departPos="0" departLane="best" departSpeed="5.0"/>-->
<!--<flow id="146" type="SUMO_DEFAULT_TYPE" begin="0" end="3600" number="1200" from="337620200#11" to="582793718#0" departPos="0" departLane="best" departSpeed="5.0"/>-->
<!--<flow id="147" type="SUMO_DEFAULT_TYPE" begin="0" end="3600" number="800" from="535400199" to="-614214453" departPos="0" departLane="best" departSpeed="5.0"/>-->
<!--<flow id="148" type="SUMO_DEFAULT_TYPE" begin="0" end="3600" number="1200" from="-221046865#2" to="154351772#3" departPos="0" departLane="best" departSpeed="5.0"/>-->
<!--<flow id="149" type="SUMO_DEFAULT_TYPE" begin="0" end="3600" number="800" from="582232108#0" to="-336837632#4" departPos="0" departLane="best" departSpeed="5.0"/>-->
<!--<flow id="150" type="SUMO_DEFAULT_TYPE" begin="0" end="3600" number="1200" from="-509220141#0" to="360785525#0" departPos="0" departLane="best" departSpeed="5.0"/>-->
<!--<flow id="151" type="SUMO_DEFAULT_TYPE" begin="0" end="3600" number="800" from="306360736#1" to="336837633#5" departPos="0" departLane="best" departSpeed="5.0"/>-->
<!--<flow id="152" type="SUMO_DEFAULT_TYPE" begin="0" end="3600" number="1200" from="525332590#2" to="571884285#2" departPos="0" departLane="best" departSpeed="5.0"/>-->
<!--<flow id="153" type="SUMO_DEFAULT_TYPE" begin="0" end="3600" number="800" from="-533737280" to="509220166" departPos="0" departLane="best" departSpeed="5.0"/>-->
<!--<flow id="154" type="SUMO_DEFAULT_TYPE" begin="0" end="3600" number="1200" from="24667447#0" to="-489071249#2" departPos="0" departLane="best" departSpeed="5.0"/>-->
<!--<flow id="155" type="SUMO_DEFAULT_TYPE" begin="0" end="3600" number="800" from="346585813#1" to="293805582#2" departPos="0" departLane="best" departSpeed="5.0"/>-->
<!--<flow id="156" type="SUMO_DEFAULT_TYPE" begin="0" end="3600" number="1200" from="-392752198#2" to="356929317#1" departPos="0" departLane="best" departSpeed="5.0"/>-->
<!--<flow id="157" type="SUMO_DEFAULT_TYPE" begin="0" end="3600" number="800" from="479448128" to="154325307" departPos="0" departLane="best" departSpeed="5.0"/>-->
<!--<flow id="158" type="SUMO_DEFAULT_TYPE" begin="0" end="3600" number="1200" from="345069886#0" to="356929316" departPos="0" departLane="best" departSpeed="5.0"/>-->
<!--<flow id="159" type="SUMO_DEFAULT_TYPE" begin="0" end="3600" number="800" from="-356766859#1" to="-338993988#0" departPos="0" departLane="best" departSpeed="5.0"/>-->
<!--<flow id="160" type="SUMO_DEFAULT_TYPE" begin="0" end="3600" number="1200" from="653732135#0" to="356718207" departPos="0" departLane="best" departSpeed="5.0"/>-->
<!--<flow id="161" type="SUMO_DEFAULT_TYPE" begin="0" end="3600" number="800" from="222475188#3" to="489826389" departPos="0" departLane="best" departSpeed="5.0"/>-->
<!--<flow id="162" type="SUMO_DEFAULT_TYPE" begin="0" end="3600" number="1200" from="615177140#0" to="113467605#0" departPos="0" departLane="best" departSpeed="5.0"/>-->
<!--<flow id="163" type="SUMO_DEFAULT_TYPE" begin="0" end="3600" number="800" from="338490461#1" to="587814429" departPos="0" departLane="best" departSpeed="5.0"/>-->
<!--<flow id="164" type="SUMO_DEFAULT_TYPE" begin="0" end="3600" number="1200" from="589576520#3" to="604686697#2" departPos="0" departLane="best" departSpeed="5.0"/>-->
<!--<flow id="165" type="SUMO_DEFAULT_TYPE" begin="0" end="3600" number="800" from="403060951#3" to="519960785#0" departPos="0" departLane="best" departSpeed="5.0"/>-->
<!--<flow id="166" type="SUMO_DEFAULT_TYPE" begin="0" end="3600" number="1200" from="388018760#0" to="154352427#1" departPos="0" departLane="best" departSpeed="5.0"/>-->
<!--<flow id="167" type="SUMO_DEFAULT_TYPE" begin="0" end="3600" number="800" from="113467557#1" to="-338995633#0" departPos="0" departLane="best" departSpeed="5.0"/>-->
<!--<flow id="168" type="SUMO_DEFAULT_TYPE" begin="0" end="3600" number="1200" from="-157967165#0" to="154508895#0" departPos="0" departLane="best" departSpeed="5.0"/>-->
<!--<flow id="169" type="SUMO_DEFAULT_TYPE" begin="0" end="3600" number="800" from="-582090768" to="403060948" departPos="0" departLane="best" departSpeed="5.0"/>-->
<!--<flow id="170" type="SUMO_DEFAULT_TYPE" begin="0" end="3600" number="1200" from="489071257#6" to="-519323443" departPos="0" departLane="best" departSpeed="5.0"/>-->
<!--<flow id="171" type="SUMO_DEFAULT_TYPE" begin="0" end="3600" number="800" from="338995630#4" to="356767462#0" departPos="0" departLane="best" departSpeed="5.0"/>-->
<!--<flow id="172" type="SUMO_DEFAULT_TYPE" begin="0" end="3600" number="1200" from="585016601#1" to="571531059#9" departPos="0" departLane="best" departSpeed="5.0"/>-->
<!--<flow id="173" type="SUMO_DEFAULT_TYPE" begin="0" end="3600" number="800" from="-430812032#1" to="-519322344#5" departPos="0" departLane="best" departSpeed="5.0"/>-->
<!--<flow id="174" type="SUMO_DEFAULT_TYPE" begin="0" end="3600" number="1200" from="157967264#1" to="-501094919#0" departPos="0" departLane="best" departSpeed="5.0"/>-->
<!--<flow id="175" type="SUMO_DEFAULT_TYPE" begin="0" end="3600" number="800" from="608641851" to="585017410" departPos="0" departLane="best" departSpeed="5.0"/>-->
<!--<flow id="176" type="SUMO_DEFAULT_TYPE" begin="0" end="3600" number="1200" from="-345071355#1" to="-590060012#1" departPos="0" departLane="best" departSpeed="5.0"/>-->