<?xml version='1.0' encoding='utf-8'?>
<routes xmlns:xsi="http://www.w3.org/2001/XMLSchema-instance" xsi:noNamespaceSchemaLocation="http://sumo-sim.org/xsd/routes_file.xsd">
<route edges="0/1to1/1 1/1to2/1 2/1to3/1 3/1to4/1 4/1to5/1 5/1to6/1 6/1to7/1" id="route0" />
<route edges="7/1to6/1 6/1to5/1 5/1to4/1 4/1to3/1 3/1to2/1 2/1to1/1 1/1to0/1" id="route1" />
<route edges="1/0to1/1 1/1to1/2 1/2to1/3 1/3to1/4 1/4to1/5 1/5to1/6 1/6to1/7" id="route2" />
<route edges="1/7to1/6 1/6to1/5 1/5to1/4 1/4to1/3 1/3to1/2 1/2to1/1 1/1to1/0" id="route3" />
<route edges="0/2to1/2 1/2to2/2 2/2to3/2 3/2to4/2 4/2to5/2 5/2to6/2 6/2to7/2" id="route4" />
<route edges="7/2to6/2 6/2to5/2 5/2to4/2 4/2to3/2 3/2to2/2 2/2to1/2 1/2to0/2" id="route5" />
<route edges="2/0to2/1 2/1to2/2 2/2to2/3 2/3to2/4 2/4to2/5 2/5to2/6 2/6to2/7" id="route6" />
<route edges="2/7to2/6 2/6to2/5 2/5to2/4 2/4to2/3 2/3to2/2 2/2to2/1 2/1to2/0" id="route7" />
<route edges="0/3to1/3 1/3to2/3 2/3to3/3 3/3to4/3 4/3to5/3 5/3to6/3 6/3to7/3" id="route8" />
<route edges="7/3to6/3 6/3to5/3 5/3to4/3 4/3to3/3 3/3to2/3 2/3to1/3 1/3to0/3" id="route9" />
<route edges="3/0to3/1 3/1to3/2 3/2to3/3 3/3to3/4 3/4to3/5 3/5to3/6 3/6to3/7" id="route10" />
<route edges="3/7to3/6 3/6to3/5 3/5to3/4 3/4to3/3 3/3to3/2 3/2to3/1 3/1to3/0" id="route11" />
<route edges="0/4to1/4 1/4to2/4 2/4to3/4 3/4to4/4 4/4to5/4 5/4to6/4 6/4to7/4" id="route12" />
<route edges="7/4to6/4 6/4to5/4 5/4to4/4 4/4to3/4 3/4to2/4 2/4to1/4 1/4to0/4" id="route13" />
<route edges="4/0to4/1 4/1to4/2 4/2to4/3 4/3to4/4 4/4to4/5 4/5to4/6 4/6to4/7" id="route14" />
<route edges="4/7to4/6 4/6to4/5 4/5to4/4 4/4to4/3 4/3to4/2 4/2to4/1 4/1to4/0" id="route15" />
<route edges="0/5to1/5 1/5to2/5 2/5to3/5 3/5to4/5 4/5to5/5 5/5to6/5 6/5to7/5" id="route16" />
<route edges="7/5to6/5 6/5to5/5 5/5to4/5 4/5to3/5 3/5to2/5 2/5to1/5 1/5to0/5" id="route17" />
<route edges="5/0to5/1 5/1to5/2 5/2to5/3 5/3to5/4 5/4to5/5 5/5to5/6 5/6to5/7" id="route18" />
<route edges="5/7to5/6 5/6to5/5 5/5to5/4 5/4to5/3 5/3to5/2 5/2to5/1 5/1to5/0" id="route19" />
<route edges="0/6to1/6 1/6to2/6 2/6to3/6 3/6to4/6 4/6to5/6 5/6to6/6 6/6to7/6" id="route20" />
<route edges="7/6to6/6 6/6to5/6 5/6to4/6 4/6to3/6 3/6to2/6 2/6to1/6 1/6to0/6" id="route21" />
<route edges="6/0to6/1 6/1to6/2 6/2to6/3 6/3to6/4 6/4to6/5 6/5to6/6 6/6to6/7" id="route22" />
<route edges="6/7to6/6 6/6to6/5 6/5to6/4 6/4to6/3 6/3to6/2 6/2to6/1 6/1to6/0" id="route23" />
<route edges="1/0to1/1 1/1to2/1 2/1to2/2 2/2to3/2 3/2to3/3 3/3to4/3 4/3to4/4 4/4to5/4 5/4to5/5 5/5to6/5 6/5to6/6 6/6to7/6" id="route24" />
<route edges="6/0to6/1 6/1to5/1 5/1to5/2 5/2to4/2 4/2to4/3 4/3to3/3 3/3to3/4 3/4to2/4 2/4to2/5 2/5to1/5 1/5to1/6 1/6to0/6" id="route25" />
<route edges="0/1to1/1 1/1to1/2 1/2to2/2 2/2to2/3 2/3to3/3 3/3to3/4 3/4to4/4 4/4to4/5 4/5to5/5 5/5to5/6 5/6to6/6 6/6to6/7" id="route26" />
<route edges="7/1to6/1 6/1to6/2 6/2to5/2 5/2to5/3 5/3to4/3 4/3to4/4 4/4to3/4 3/4to3/5 3/5to2/5 2/5to2/6 2/6to1/6 1/6to1/7" id="route27" />
<route edges="0/6to1/6 1/6to1/5 1/5to2/5 2/5to2/4 2/4to3/4 3/4to3/3 3/3to4/3 4/3to4/2 4/2to5/2 5/2to5/1 5/1to6/1 6/1to6/0" id="route28" />
<route edges="1/7to1/6 1/6to2/6 2/6to2/5 2/5to3/5 3/5to3/4 3/4to4/4 4/4to4/3 4/3to5/3 5/3to5/2 5/2to6/2 6/2to6/1 6/1to7/1" id="route29" />
<route edges="6/7to6/6 6/6to5/6 5/6to5/5 5/5to4/5 4/5to4/4 4/4to3/4 3/4to3/3 3/3to2/3 2/3to2/2 2/2to1/2 1/2to1/1 1/1to0/1" id="route30" />
<route edges="7/6to6/6 6/6to6/5 6/5to5/5 5/5to5/4 5/4to4/4 4/4to4/3 4/3to3/3 3/3to3/2 3/2to2/2 2/2to2/1 2/1to1/1 1/1to1/0" id="route31" />
<flow begin="0" end="3600" id="flow0" route="route0" vehsPerHour="1200" />
<flow begin="0" end="3600" id="flow1" route="route1" vehsPerHour="1200" />
<flow begin="0" end="3600" id="flow2" route="route2" vehsPerHour="1200" />
<flow begin="0" end="3600" id="flow3" route="route3" vehsPerHour="1200" />
<flow begin="0" end="3600" id="flow4" route="route4" vehsPerHour="1200" />
<flow begin="0" end="3600" id="flow5" route="route5" vehsPerHour="1200" />
<flow begin="0" end="3600" id="flow6" route="route6" vehsPerHour="1200" />
<flow begin="0" end="3600" id="flow7" route="route7" vehsPerHour="1200" />
<flow begin="0" end="3600" id="flow8" route="route8" vehsPerHour="1200" />
<flow begin="0" end="3600" id="flow9" route="route9" vehsPerHour="1200" />
<flow begin="0" end="3600" id="flow10" route="route10" vehsPerHour="1200" />
<flow begin="0" end="3600" id="flow11" route="route11" vehsPerHour="1200" />
<flow begin="0" end="3600" id="flow12" route="route12" vehsPerHour="1200" />
<flow begin="0" end="3600" id="flow13" route="route13" vehsPerHour="1200" />
<flow begin="0" end="3600" id="flow14" route="route14" vehsPerHour="1200" />
<flow begin="0" end="3600" id="flow15" route="route15" vehsPerHour="1200" />
<flow begin="0" end="3600" id="flow16" route="route16" vehsPerHour="1200" />
<flow begin="0" end="3600" id="flow17" route="route17" vehsPerHour="1200" />
<flow begin="0" end="3600" id="flow18" route="route18" vehsPerHour="1200" />
<flow begin="0" end="3600" id="flow19" route="route19" vehsPerHour="1200" />
<flow begin="0" end="3600" id="flow20" route="route20" vehsPerHour="1200" />
<flow begin="0" end="3600" id="flow21" route="route21" vehsPerHour="1200" />
<flow begin="0" end="3600" id="flow22" route="route22" vehsPerHour="1200" />
<flow begin="0" end="3600" id="flow23" route="route23" vehsPerHour="1200" />
<flow begin="0" end="3600" id="flow24" route="route24" vehsPerHour="1200" />
<flow begin="0" end="3600" id="flow25" route="route25" vehsPerHour="1200" />
<flow begin="0" end="3600" id="flow26" route="route26" vehsPerHour="1200" />
<flow begin="0" end="3600" id="flow27" route="route27" vehsPerHour="1200" />
<flow begin="0" end="3600" id="flow28" route="route28" vehsPerHour="1200" />
<flow begin="0" end="3600" id="flow29" route="route29" vehsPerHour="1200" />
<flow begin="0" end="3600" id="flow30" route="route30" vehsPerHour="1200" />
<flow begin="0" end="3600" id="flow31" route="route31" vehsPerHour="1200" />
</routes>