<?xml version='1.0' encoding='utf-8'?>
<routes xmlns:xsi="http://www.w3.org/2001/XMLSchema-instance" xsi:noNamespaceSchemaLocation="http://sumo-sim.org/xsd/routes_file.xsd">
<route edges="0/1to1/1 1/1to2/1 2/1to3/1 3/1to4/1 4/1to5/1 5/1to6/1 6/1to7/1 7/1to8/1 8/1to9/1 9/1to10/1 10/1to11/1 11/1to12/1 12/1to13/1 13/1to14/1 14/1to15/1 15/1to16/1 16/1to17/1 17/1to18/1 18/1to19/1 19/1to20/1 20/1to21/1 21/1to22/1 22/1to23/1 23/1to24/1 24/1to25/1 25/1to26/1 26/1to27/1 27/1to28/1 28/1to29/1 29/1to30/1 30/1to31/1" id="route0" />
<route edges="31/1to30/1 30/1to29/1 29/1to28/1 28/1to27/1 27/1to26/1 26/1to25/1 25/1to24/1 24/1to23/1 23/1to22/1 22/1to21/1 21/1to20/1 20/1to19/1 19/1to18/1 18/1to17/1 17/1to16/1 16/1to15/1 15/1to14/1 14/1to13/1 13/1to12/1 12/1to11/1 11/1to10/1 10/1to9/1 9/1to8/1 8/1to7/1 7/1to6/1 6/1to5/1 5/1to4/1 4/1to3/1 3/1to2/1 2/1to1/1 1/1to0/1" id="route1" />
<route edges="1/0to1/1 1/1to1/2 1/2to1/3 1/3to1/4 1/4to1/5 1/5to1/6 1/6to1/7 1/7to1/8 1/8to1/9 1/9to1/10 1/10to1/11 1/11to1/12 1/12to1/13 1/13to1/14 1/14to1/15 1/15to1/16 1/16to1/17 1/17to1/18 1/18to1/19 1/19to1/20 1/20to1/21 1/21to1/22 1/22to1/23 1/23to1/24 1/24to1/25 1/25to1/26 1/26to1/27 1/27to1/28 1/28to1/29 1/29to1/30 1/30to1/31" id="route2" />
<route edges="1/31to1/30 1/30to1/29 1/29to1/28 1/28to1/27 1/27to1/26 1/26to1/25 1/25to1/24 1/24to1/23 1/23to1/22 1/22to1/21 1/21to1/20 1/20to1/19 1/19to1/18 1/18to1/17 1/17to1/16 1/16to1/15 1/15to1/14 1/14to1/13 1/13to1/12 1/12to1/11 1/11to1/10 1/10to1/9 1/9to1/8 1/8to1/7 1/7to1/6 1/6to1/5 1/5to1/4 1/4to1/3 1/3to1/2 1/2to1/1 1/1to1/0" id="route3" />
<route edges="0/2to1/2 1/2to2/2 2/2to3/2 3/2to4/2 4/2to5/2 5/2to6/2 6/2to7/2 7/2to8/2 8/2to9/2 9/2to10/2 10/2to11/2 11/2to12/2 12/2to13/2 13/2to14/2 14/2to15/2 15/2to16/2 16/2to17/2 17/2to18/2 18/2to19/2 19/2to20/2 20/2to21/2 21/2to22/2 22/2to23/2 23/2to24/2 24/2to25/2 25/2to26/2 26/2to27/2 27/2to28/2 28/2to29/2 29/2to30/2 30/2to31/2" id="route4" />
<route edges="31/2to30/2 30/2to29/2 29/2to28/2 28/2to27/2 27/2to26/2 26/2to25/2 25/2to24/2 24/2to23/2 23/2to22/2 22/2to21/2 21/2to20/2 20/2to19/2 19/2to18/2 18/2to17/2 17/2to16/2 16/2to15/2 15/2to14/2 14/2to13/2 13/2to12/2 12/2to11/2 11/2to10/2 10/2to9/2 9/2to8/2 8/2to7/2 7/2to6/2 6/2to5/2 5/2to4/2 4/2to3/2 3/2to2/2 2/2to1/2 1/2to0/2" id="route5" />
<route edges="2/0to2/1 2/1to2/2 2/2to2/3 2/3to2/4 2/4to2/5 2/5to2/6 2/6to2/7 2/7to2/8 2/8to2/9 2/9to2/10 2/10to2/11 2/11to2/12 2/12to2/13 2/13to2/14 2/14to2/15 2/15to2/16 2/16to2/17 2/17to2/18 2/18to2/19 2/19to2/20 2/20to2/21 2/21to2/22 2/22to2/23 2/23to2/24 2/24to2/25 2/25to2/26 2/26to2/27 2/27to2/28 2/28to2/29 2/29to2/30 2/30to2/31" id="route6" />
<route edges="2/31to2/30 2/30to2/29 2/29to2/28 2/28to2/27 2/27to2/26 2/26to2/25 2/25to2/24 2/24to2/23 2/23to2/22 2/22to2/21 2/21to2/20 2/20to2/19 2/19to2/18 2/18to2/17 2/17to2/16 2/16to2/15 2/15to2/14 2/14to2/13 2/13to2/12 2/12to2/11 2/11to2/10 2/10to2/9 2/9to2/8 2/8to2/7 2/7to2/6 2/6to2/5 2/5to2/4 2/4to2/3 2/3to2/2 2/2to2/1 2/1to2/0" id="route7" />
<route edges="0/3to1/3 1/3to2/3 2/3to3/3 3/3to4/3 4/3to5/3 5/3to6/3 6/3to7/3 7/3to8/3 8/3to9/3 9/3to10/3 10/3to11/3 11/3to12/3 12/3to13/3 13/3to14/3 14/3to15/3 15/3to16/3 16/3to17/3 17/3to18/3 18/3to19/3 19/3to20/3 20/3to21/3 21/3to22/3 22/3to23/3 23/3to24/3 24/3to25/3 25/3to26/3 26/3to27/3 27/3to28/3 28/3to29/3 29/3to30/3 30/3to31/3" id="route8" />
<route edges="31/3to30/3 30/3to29/3 29/3to28/3 28/3to27/3 27/3to26/3 26/3to25/3 25/3to24/3 24/3to23/3 23/3to22/3 22/3to21/3 21/3to20/3 20/3to19/3 19/3to18/3 18/3to17/3 17/3to16/3 16/3to15/3 15/3to14/3 14/3to13/3 13/3to12/3 12/3to11/3 11/3to10/3 10/3to9/3 9/3to8/3 8/3to7/3 7/3to6/3 6/3to5/3 5/3to4/3 4/3to3/3 3/3to2/3 2/3to1/3 1/3to0/3" id="route9" />
<route edges="3/0to3/1 3/1to3/2 3/2to3/3 3/3to3/4 3/4to3/5 3/5to3/6 3/6to3/7 3/7to3/8 3/8to3/9 3/9to3/10 3/10to3/11 3/11to3/12 3/12to3/13 3/13to3/14 3/14to3/15 3/15to3/16 3/16to3/17 3/17to3/18 3/18to3/19 3/19to3/20 3/20to3/21 3/21to3/22 3/22to3/23 3/23to3/24 3/24to3/25 3/25to3/26 3/26to3/27 3/27to3/28 3/28to3/29 3/29to3/30 3/30to3/31" id="route10" />
<route edges="3/31to3/30 3/30to3/29 3/29to3/28 3/28to3/27 3/27to3/26 3/26to3/25 3/25to3/24 3/24to3/23 3/23to3/22 3/22to3/21 3/21to3/20 3/20to3/19 3/19to3/18 3/18to3/17 3/17to3/16 3/16to3/15 3/15to3/14 3/14to3/13 3/13to3/12 3/12to3/11 3/11to3/10 3/10to3/9 3/9to3/8 3/8to3/7 3/7to3/6 3/6to3/5 3/5to3/4 3/4to3/3 3/3to3/2 3/2to3/1 3/1to3/0" id="route11" />
<route edges="0/4to1/4 1/4to2/4 2/4to3/4 3/4to4/4 4/4to5/4 5/4to6/4 6/4to7/4 7/4to8/4 8/4to9/4 9/4to10/4 10/4to11/4 11/4to12/4 12/4to13/4 13/4to14/4 14/4to15/4 15/4to16/4 16/4to17/4 17/4to18/4 18/4to19/4 19/4to20/4 20/4to21/4 21/4to22/4 22/4to23/4 23/4to24/4 24/4to25/4 25/4to26/4 26/4to27/4 27/4to28/4 28/4to29/4 29/4to30/4 30/4to31/4" id="route12" />
<route edges="31/4to30/4 30/4to29/4 29/4to28/4 28/4to27/4 27/4to26/4 26/4to25/4 25/4to24/4 24/4to23/4 23/4to22/4 22/4to21/4 21/4to20/4 20/4to19/4 19/4to18/4 18/4to17/4 17/4to16/4 16/4to15/4 15/4to14/4 14/4to13/4 13/4to12/4 12/4to11/4 11/4to10/4 10/4to9/4 9/4to8/4 8/4to7/4 7/4to6/4 6/4to5/4 5/4to4/4 4/4to3/4 3/4to2/4 2/4to1/4 1/4to0/4" id="route13" />
<route edges="4/0to4/1 4/1to4/2 4/2to4/3 4/3to4/4 4/4to4/5 4/5to4/6 4/6to4/7 4/7to4/8 4/8to4/9 4/9to4/10 4/10to4/11 4/11to4/12 4/12to4/13 4/13to4/14 4/14to4/15 4/15to4/16 4/16to4/17 4/17to4/18 4/18to4/19 4/19to4/20 4/20to4/21 4/21to4/22 4/22to4/23 4/23to4/24 4/24to4/25 4/25to4/26 4/26to4/27 4/27to4/28 4/28to4/29 4/29to4/30 4/30to4/31" id="route14" />
<route edges="4/31to4/30 4/30to4/29 4/29to4/28 4/28to4/27 4/27to4/26 4/26to4/25 4/25to4/24 4/24to4/23 4/23to4/22 4/22to4/21 4/21to4/20 4/20to4/19 4/19to4/18 4/18to4/17 4/17to4/16 4/16to4/15 4/15to4/14 4/14to4/13 4/13to4/12 4/12to4/11 4/11to4/10 4/10to4/9 4/9to4/8 4/8to4/7 4/7to4/6 4/6to4/5 4/5to4/4 4/4to4/3 4/3to4/2 4/2to4/1 4/1to4/0" id="route15" />
<route edges="0/5to1/5 1/5to2/5 2/5to3/5 3/5to4/5 4/5to5/5 5/5to6/5 6/5to7/5 7/5to8/5 8/5to9/5 9/5to10/5 10/5to11/5 11/5to12/5 12/5to13/5 13/5to14/5 14/5to15/5 15/5to16/5 16/5to17/5 17/5to18/5 18/5to19/5 19/5to20/5 20/5to21/5 21/5to22/5 22/5to23/5 23/5to24/5 24/5to25/5 25/5to26/5 26/5to27/5 27/5to28/5 28/5to29/5 29/5to30/5 30/5to31/5" id="route16" />
<route edges="31/5to30/5 30/5to29/5 29/5to28/5 28/5to27/5 27/5to26/5 26/5to25/5 25/5to24/5 24/5to23/5 23/5to22/5 22/5to21/5 21/5to20/5 20/5to19/5 19/5to18/5 18/5to17/5 17/5to16/5 16/5to15/5 15/5to14/5 14/5to13/5 13/5to12/5 12/5to11/5 11/5to10/5 10/5to9/5 9/5to8/5 8/5to7/5 7/5to6/5 6/5to5/5 5/5to4/5 4/5to3/5 3/5to2/5 2/5to1/5 1/5to0/5" id="route17" />
<route edges="5/0to5/1 5/1to5/2 5/2to5/3 5/3to5/4 5/4to5/5 5/5to5/6 5/6to5/7 5/7to5/8 5/8to5/9 5/9to5/10 5/10to5/11 5/11to5/12 5/12to5/13 5/13to5/14 5/14to5/15 5/15to5/16 5/16to5/17 5/17to5/18 5/18to5/19 5/19to5/20 5/20to5/21 5/21to5/22 5/22to5/23 5/23to5/24 5/24to5/25 5/25to5/26 5/26to5/27 5/27to5/28 5/28to5/29 5/29to5/30 5/30to5/31" id="route18" />
<route edges="5/31to5/30 5/30to5/29 5/29to5/28 5/28to5/27 5/27to5/26 5/26to5/25 5/25to5/24 5/24to5/23 5/23to5/22 5/22to5/21 5/21to5/20 5/20to5/19 5/19to5/18 5/18to5/17 5/17to5/16 5/16to5/15 5/15to5/14 5/14to5/13 5/13to5/12 5/12to5/11 5/11to5/10 5/10to5/9 5/9to5/8 5/8to5/7 5/7to5/6 5/6to5/5 5/5to5/4 5/4to5/3 5/3to5/2 5/2to5/1 5/1to5/0" id="route19" />
<route edges="0/6to1/6 1/6to2/6 2/6to3/6 3/6to4/6 4/6to5/6 5/6to6/6 6/6to7/6 7/6to8/6 8/6to9/6 9/6to10/6 10/6to11/6 11/6to12/6 12/6to13/6 13/6to14/6 14/6to15/6 15/6to16/6 16/6to17/6 17/6to18/6 18/6to19/6 19/6to20/6 20/6to21/6 21/6to22/6 22/6to23/6 23/6to24/6 24/6to25/6 25/6to26/6 26/6to27/6 27/6to28/6 28/6to29/6 29/6to30/6 30/6to31/6" id="route20" />
<route edges="31/6to30/6 30/6to29/6 29/6to28/6 28/6to27/6 27/6to26/6 26/6to25/6 25/6to24/6 24/6to23/6 23/6to22/6 22/6to21/6 21/6to20/6 20/6to19/6 19/6to18/6 18/6to17/6 17/6to16/6 16/6to15/6 15/6to14/6 14/6to13/6 13/6to12/6 12/6to11/6 11/6to10/6 10/6to9/6 9/6to8/6 8/6to7/6 7/6to6/6 6/6to5/6 5/6to4/6 4/6to3/6 3/6to2/6 2/6to1/6 1/6to0/6" id="route21" />
<route edges="6/0to6/1 6/1to6/2 6/2to6/3 6/3to6/4 6/4to6/5 6/5to6/6 6/6to6/7 6/7to6/8 6/8to6/9 6/9to6/10 6/10to6/11 6/11to6/12 6/12to6/13 6/13to6/14 6/14to6/15 6/15to6/16 6/16to6/17 6/17to6/18 6/18to6/19 6/19to6/20 6/20to6/21 6/21to6/22 6/22to6/23 6/23to6/24 6/24to6/25 6/25to6/26 6/26to6/27 6/27to6/28 6/28to6/29 6/29to6/30 6/30to6/31" id="route22" />
<route edges="6/31to6/30 6/30to6/29 6/29to6/28 6/28to6/27 6/27to6/26 6/26to6/25 6/25to6/24 6/24to6/23 6/23to6/22 6/22to6/21 6/21to6/20 6/20to6/19 6/19to6/18 6/18to6/17 6/17to6/16 6/16to6/15 6/15to6/14 6/14to6/13 6/13to6/12 6/12to6/11 6/11to6/10 6/10to6/9 6/9to6/8 6/8to6/7 6/7to6/6 6/6to6/5 6/5to6/4 6/4to6/3 6/3to6/2 6/2to6/1 6/1to6/0" id="route23" />
<route edges="0/7to1/7 1/7to2/7 2/7to3/7 3/7to4/7 4/7to5/7 5/7to6/7 6/7to7/7 7/7to8/7 8/7to9/7 9/7to10/7 10/7to11/7 11/7to12/7 12/7to13/7 13/7to14/7 14/7to15/7 15/7to16/7 16/7to17/7 17/7to18/7 18/7to19/7 19/7to20/7 20/7to21/7 21/7to22/7 22/7to23/7 23/7to24/7 24/7to25/7 25/7to26/7 26/7to27/7 27/7to28/7 28/7to29/7 29/7to30/7 30/7to31/7" id="route24" />
<route edges="31/7to30/7 30/7to29/7 29/7to28/7 28/7to27/7 27/7to26/7 26/7to25/7 25/7to24/7 24/7to23/7 23/7to22/7 22/7to21/7 21/7to20/7 20/7to19/7 19/7to18/7 18/7to17/7 17/7to16/7 16/7to15/7 15/7to14/7 14/7to13/7 13/7to12/7 12/7to11/7 11/7to10/7 10/7to9/7 9/7to8/7 8/7to7/7 7/7to6/7 6/7to5/7 5/7to4/7 4/7to3/7 3/7to2/7 2/7to1/7 1/7to0/7" id="route25" />
<route edges="7/0to7/1 7/1to7/2 7/2to7/3 7/3to7/4 7/4to7/5 7/5to7/6 7/6to7/7 7/7to7/8 7/8to7/9 7/9to7/10 7/10to7/11 7/11to7/12 7/12to7/13 7/13to7/14 7/14to7/15 7/15to7/16 7/16to7/17 7/17to7/18 7/18to7/19 7/19to7/20 7/20to7/21 7/21to7/22 7/22to7/23 7/23to7/24 7/24to7/25 7/25to7/26 7/26to7/27 7/27to7/28 7/28to7/29 7/29to7/30 7/30to7/31" id="route26" />
<route edges="7/31to7/30 7/30to7/29 7/29to7/28 7/28to7/27 7/27to7/26 7/26to7/25 7/25to7/24 7/24to7/23 7/23to7/22 7/22to7/21 7/21to7/20 7/20to7/19 7/19to7/18 7/18to7/17 7/17to7/16 7/16to7/15 7/15to7/14 7/14to7/13 7/13to7/12 7/12to7/11 7/11to7/10 7/10to7/9 7/9to7/8 7/8to7/7 7/7to7/6 7/6to7/5 7/5to7/4 7/4to7/3 7/3to7/2 7/2to7/1 7/1to7/0" id="route27" />
<route edges="0/8to1/8 1/8to2/8 2/8to3/8 3/8to4/8 4/8to5/8 5/8to6/8 6/8to7/8 7/8to8/8 8/8to9/8 9/8to10/8 10/8to11/8 11/8to12/8 12/8to13/8 13/8to14/8 14/8to15/8 15/8to16/8 16/8to17/8 17/8to18/8 18/8to19/8 19/8to20/8 20/8to21/8 21/8to22/8 22/8to23/8 23/8to24/8 24/8to25/8 25/8to26/8 26/8to27/8 27/8to28/8 28/8to29/8 29/8to30/8 30/8to31/8" id="route28" />
<route edges="31/8to30/8 30/8to29/8 29/8to28/8 28/8to27/8 27/8to26/8 26/8to25/8 25/8to24/8 24/8to23/8 23/8to22/8 22/8to21/8 21/8to20/8 20/8to19/8 19/8to18/8 18/8to17/8 17/8to16/8 16/8to15/8 15/8to14/8 14/8to13/8 13/8to12/8 12/8to11/8 11/8to10/8 10/8to9/8 9/8to8/8 8/8to7/8 7/8to6/8 6/8to5/8 5/8to4/8 4/8to3/8 3/8to2/8 2/8to1/8 1/8to0/8" id="route29" />
<route edges="8/0to8/1 8/1to8/2 8/2to8/3 8/3to8/4 8/4to8/5 8/5to8/6 8/6to8/7 8/7to8/8 8/8to8/9 8/9to8/10 8/10to8/11 8/11to8/12 8/12to8/13 8/13to8/14 8/14to8/15 8/15to8/16 8/16to8/17 8/17to8/18 8/18to8/19 8/19to8/20 8/20to8/21 8/21to8/22 8/22to8/23 8/23to8/24 8/24to8/25 8/25to8/26 8/26to8/27 8/27to8/28 8/28to8/29 8/29to8/30 8/30to8/31" id="route30" />
<route edges="8/31to8/30 8/30to8/29 8/29to8/28 8/28to8/27 8/27to8/26 8/26to8/25 8/25to8/24 8/24to8/23 8/23to8/22 8/22to8/21 8/21to8/20 8/20to8/19 8/19to8/18 8/18to8/17 8/17to8/16 8/16to8/15 8/15to8/14 8/14to8/13 8/13to8/12 8/12to8/11 8/11to8/10 8/10to8/9 8/9to8/8 8/8to8/7 8/7to8/6 8/6to8/5 8/5to8/4 8/4to8/3 8/3to8/2 8/2to8/1 8/1to8/0" id="route31" />
<route edges="0/9to1/9 1/9to2/9 2/9to3/9 3/9to4/9 4/9to5/9 5/9to6/9 6/9to7/9 7/9to8/9 8/9to9/9 9/9to10/9 10/9to11/9 11/9to12/9 12/9to13/9 13/9to14/9 14/9to15/9 15/9to16/9 16/9to17/9 17/9to18/9 18/9to19/9 19/9to20/9 20/9to21/9 21/9to22/9 22/9to23/9 23/9to24/9 24/9to25/9 25/9to26/9 26/9to27/9 27/9to28/9 28/9to29/9 29/9to30/9 30/9to31/9" id="route32" />
<route edges="31/9to30/9 30/9to29/9 29/9to28/9 28/9to27/9 27/9to26/9 26/9to25/9 25/9to24/9 24/9to23/9 23/9to22/9 22/9to21/9 21/9to20/9 20/9to19/9 19/9to18/9 18/9to17/9 17/9to16/9 16/9to15/9 15/9to14/9 14/9to13/9 13/9to12/9 12/9to11/9 11/9to10/9 10/9to9/9 9/9to8/9 8/9to7/9 7/9to6/9 6/9to5/9 5/9to4/9 4/9to3/9 3/9to2/9 2/9to1/9 1/9to0/9" id="route33" />
<route edges="9/0to9/1 9/1to9/2 9/2to9/3 9/3to9/4 9/4to9/5 9/5to9/6 9/6to9/7 9/7to9/8 9/8to9/9 9/9to9/10 9/10to9/11 9/11to9/12 9/12to9/13 9/13to9/14 9/14to9/15 9/15to9/16 9/16to9/17 9/17to9/18 9/18to9/19 9/19to9/20 9/20to9/21 9/21to9/22 9/22to9/23 9/23to9/24 9/24to9/25 9/25to9/26 9/26to9/27 9/27to9/28 9/28to9/29 9/29to9/30 9/30to9/31" id="route34" />
<route edges="9/31to9/30 9/30to9/29 9/29to9/28 9/28to9/27 9/27to9/26 9/26to9/25 9/25to9/24 9/24to9/23 9/23to9/22 9/22to9/21 9/21to9/20 9/20to9/19 9/19to9/18 9/18to9/17 9/17to9/16 9/16to9/15 9/15to9/14 9/14to9/13 9/13to9/12 9/12to9/11 9/11to9/10 9/10to9/9 9/9to9/8 9/8to9/7 9/7to9/6 9/6to9/5 9/5to9/4 9/4to9/3 9/3to9/2 9/2to9/1 9/1to9/0" id="route35" />
<route edges="0/10to1/10 1/10to2/10 2/10to3/10 3/10to4/10 4/10to5/10 5/10to6/10 6/10to7/10 7/10to8/10 8/10to9/10 9/10to10/10 10/10to11/10 11/10to12/10 12/10to13/10 13/10to14/10 14/10to15/10 15/10to16/10 16/10to17/10 17/10to18/10 18/10to19/10 19/10to20/10 20/10to21/10 21/10to22/10 22/10to23/10 23/10to24/10 24/10to25/10 25/10to26/10 26/10to27/10 27/10to28/10 28/10to29/10 29/10to30/10 30/10to31/10" id="route36" />
<route edges="31/10to30/10 30/10to29/10 29/10to28/10 28/10to27/10 27/10to26/10 26/10to25/10 25/10to24/10 24/10to23/10 23/10to22/10 22/10to21/10 21/10to20/10 20/10to19/10 19/10to18/10 18/10to17/10 17/10to16/10 16/10to15/10 15/10to14/10 14/10to13/10 13/10to12/10 12/10to11/10 11/10to10/10 10/10to9/10 9/10to8/10 8/10to7/10 7/10to6/10 6/10to5/10 5/10to4/10 4/10to3/10 3/10to2/10 2/10to1/10 1/10to0/10" id="route37" />
<route edges="10/0to10/1 10/1to10/2 10/2to10/3 10/3to10/4 10/4to10/5 10/5to10/6 10/6to10/7 10/7to10/8 10/8to10/9 10/9to10/10 10/10to10/11 10/11to10/12 10/12to10/13 10/13to10/14 10/14to10/15 10/15to10/16 10/16to10/17 10/17to10/18 10/18to10/19 10/19to10/20 10/20to10/21 10/21to10/22 10/22to10/23 10/23to10/24 10/24to10/25 10/25to10/26 10/26to10/27 10/27to10/28 10/28to10/29 10/29to10/30 10/30to10/31" id="route38" />
<route edges="10/31to10/30 10/30to10/29 10/29to10/28 10/28to10/27 10/27to10/26 10/26to10/25 10/25to10/24 10/24to10/23 10/23to10/22 10/22to10/21 10/21to10/20 10/20to10/19 10/19to10/18 10/18to10/17 10/17to10/16 10/16to10/15 10/15to10/14 10/14to10/13 10/13to10/12 10/12to10/11 10/11to10/10 10/10to10/9 10/9to10/8 10/8to10/7 10/7to10/6 10/6to10/5 10/5to10/4 10/4to10/3 10/3to10/2 10/2to10/1 10/1to10/0" id="route39" />
<route edges="0/11to1/11 1/11to2/11 2/11to3/11 3/11to4/11 4/11to5/11 5/11to6/11 6/11to7/11 7/11to8/11 8/11to9/11 9/11to10/11 10/11to11/11 11/11to12/11 12/11to13/11 13/11to14/11 14/11to15/11 15/11to16/11 16/11to17/11 17/11to18/11 18/11to19/11 19/11to20/11 20/11to21/11 21/11to22/11 22/11to23/11 23/11to24/11 24/11to25/11 25/11to26/11 26/11to27/11 27/11to28/11 28/11to29/11 29/11to30/11 30/11to31/11" id="route40" />
<route edges="31/11to30/11 30/11to29/11 29/11to28/11 28/11to27/11 27/11to26/11 26/11to25/11 25/11to24/11 24/11to23/11 23/11to22/11 22/11to21/11 21/11to20/11 20/11to19/11 19/11to18/11 18/11to17/11 17/11to16/11 16/11to15/11 15/11to14/11 14/11to13/11 13/11to12/11 12/11to11/11 11/11to10/11 10/11to9/11 9/11to8/11 8/11to7/11 7/11to6/11 6/11to5/11 5/11to4/11 4/11to3/11 3/11to2/11 2/11to1/11 1/11to0/11" id="route41" />
<route edges="11/0to11/1 11/1to11/2 11/2to11/3 11/3to11/4 11/4to11/5 11/5to11/6 11/6to11/7 11/7to11/8 11/8to11/9 11/9to11/10 11/10to11/11 11/11to11/12 11/12to11/13 11/13to11/14 11/14to11/15 11/15to11/16 11/16to11/17 11/17to11/18 11/18to11/19 11/19to11/20 11/20to11/21 11/21to11/22 11/22to11/23 11/23to11/24 11/24to11/25 11/25to11/26 11/26to11/27 11/27to11/28 11/28to11/29 11/29to11/30 11/30to11/31" id="route42" />
<route edges="11/31to11/30 11/30to11/29 11/29to11/28 11/28to11/27 11/27to11/26 11/26to11/25 11/25to11/24 11/24to11/23 11/23to11/22 11/22to11/21 11/21to11/20 11/20to11/19 11/19to11/18 11/18to11/17 11/17to11/16 11/16to11/15 11/15to11/14 11/14to11/13 11/13to11/12 11/12to11/11 11/11to11/10 11/10to11/9 11/9to11/8 11/8to11/7 11/7to11/6 11/6to11/5 11/5to11/4 11/4to11/3 11/3to11/2 11/2to11/1 11/1to11/0" id="route43" />
<route edges="0/12to1/12 1/12to2/12 2/12to3/12 3/12to4/12 4/12to5/12 5/12to6/12 6/12to7/12 7/12to8/12 8/12to9/12 9/12to10/12 10/12to11/12 11/12to12/12 12/12to13/12 13/12to14/12 14/12to15/12 15/12to16/12 16/12to17/12 17/12to18/12 18/12to19/12 19/12to20/12 20/12to21/12 21/12to22/12 22/12to23/12 23/12to24/12 24/12to25/12 25/12to26/12 26/12to27/12 27/12to28/12 28/12to29/12 29/12to30/12 30/12to31/12" id="route44" />
<route edges="31/12to30/12 30/12to29/12 29/12to28/12 28/12to27/12 27/12to26/12 26/12to25/12 25/12to24/12 24/12to23/12 23/12to22/12 22/12to21/12 21/12to20/12 20/12to19/12 19/12to18/12 18/12to17/12 17/12to16/12 16/12to15/12 15/12to14/12 14/12to13/12 13/12to12/12 12/12to11/12 11/12to10/12 10/12to9/12 9/12to8/12 8/12to7/12 7/12to6/12 6/12to5/12 5/12to4/12 4/12to3/12 3/12to2/12 2/12to1/12 1/12to0/12" id="route45" />
<route edges="12/0to12/1 12/1to12/2 12/2to12/3 12/3to12/4 12/4to12/5 12/5to12/6 12/6to12/7 12/7to12/8 12/8to12/9 12/9to12/10 12/10to12/11 12/11to12/12 12/12to12/13 12/13to12/14 12/14to12/15 12/15to12/16 12/16to12/17 12/17to12/18 12/18to12/19 12/19to12/20 12/20to12/21 12/21to12/22 12/22to12/23 12/23to12/24 12/24to12/25 12/25to12/26 12/26to12/27 12/27to12/28 12/28to12/29 12/29to12/30 12/30to12/31" id="route46" />
<route edges="12/31to12/30 12/30to12/29 12/29to12/28 12/28to12/27 12/27to12/26 12/26to12/25 12/25to12/24 12/24to12/23 12/23to12/22 12/22to12/21 12/21to12/20 12/20to12/19 12/19to12/18 12/18to12/17 12/17to12/16 12/16to12/15 12/15to12/14 12/14to12/13 12/13to12/12 12/12to12/11 12/11to12/10 12/10to12/9 12/9to12/8 12/8to12/7 12/7to12/6 12/6to12/5 12/5to12/4 12/4to12/3 12/3to12/2 12/2to12/1 12/1to12/0" id="route47" />
<route edges="0/13to1/13 1/13to2/13 2/13to3/13 3/13to4/13 4/13to5/13 5/13to6/13 6/13to7/13 7/13to8/13 8/13to9/13 9/13to10/13 10/13to11/13 11/13to12/13 12/13to13/13 13/13to14/13 14/13to15/13 15/13to16/13 16/13to17/13 17/13to18/13 18/13to19/13 19/13to20/13 20/13to21/13 21/13to22/13 22/13to23/13 23/13to24/13 24/13to25/13 25/13to26/13 26/13to27/13 27/13to28/13 28/13to29/13 29/13to30/13 30/13to31/13" id="route48" />
<route edges="31/13to30/13 30/13to29/13 29/13to28/13 28/13to27/13 27/13to26/13 26/13to25/13 25/13to24/13 24/13to23/13 23/13to22/13 22/13to21/13 21/13to20/13 20/13to19/13 19/13to18/13 18/13to17/13 17/13to16/13 16/13to15/13 15/13to14/13 14/13to13/13 13/13to12/13 12/13to11/13 11/13to10/13 10/13to9/13 9/13to8/13 8/13to7/13 7/13to6/13 6/13to5/13 5/13to4/13 4/13to3/13 3/13to2/13 2/13to1/13 1/13to0/13" id="route49" />
<route edges="13/0to13/1 13/1to13/2 13/2to13/3 13/3to13/4 13/4to13/5 13/5to13/6 13/6to13/7 13/7to13/8 13/8to13/9 13/9to13/10 13/10to13/11 13/11to13/12 13/12to13/13 13/13to13/14 13/14to13/15 13/15to13/16 13/16to13/17 13/17to13/18 13/18to13/19 13/19to13/20 13/20to13/21 13/21to13/22 13/22to13/23 13/23to13/24 13/24to13/25 13/25to13/26 13/26to13/27 13/27to13/28 13/28to13/29 13/29to13/30 13/30to13/31" id="route50" />
<route edges="13/31to13/30 13/30to13/29 13/29to13/28 13/28to13/27 13/27to13/26 13/26to13/25 13/25to13/24 13/24to13/23 13/23to13/22 13/22to13/21 13/21to13/20 13/20to13/19 13/19to13/18 13/18to13/17 13/17to13/16 13/16to13/15 13/15to13/14 13/14to13/13 13/13to13/12 13/12to13/11 13/11to13/10 13/10to13/9 13/9to13/8 13/8to13/7 13/7to13/6 13/6to13/5 13/5to13/4 13/4to13/3 13/3to13/2 13/2to13/1 13/1to13/0" id="route51" />
<route edges="0/14to1/14 1/14to2/14 2/14to3/14 3/14to4/14 4/14to5/14 5/14to6/14 6/14to7/14 7/14to8/14 8/14to9/14 9/14to10/14 10/14to11/14 11/14to12/14 12/14to13/14 13/14to14/14 14/14to15/14 15/14to16/14 16/14to17/14 17/14to18/14 18/14to19/14 19/14to20/14 20/14to21/14 21/14to22/14 22/14to23/14 23/14to24/14 24/14to25/14 25/14to26/14 26/14to27/14 27/14to28/14 28/14to29/14 29/14to30/14 30/14to31/14" id="route52" />
<route edges="31/14to30/14 30/14to29/14 29/14to28/14 28/14to27/14 27/14to26/14 26/14to25/14 25/14to24/14 24/14to23/14 23/14to22/14 22/14to21/14 21/14to20/14 20/14to19/14 19/14to18/14 18/14to17/14 17/14to16/14 16/14to15/14 15/14to14/14 14/14to13/14 13/14to12/14 12/14to11/14 11/14to10/14 10/14to9/14 9/14to8/14 8/14to7/14 7/14to6/14 6/14to5/14 5/14to4/14 4/14to3/14 3/14to2/14 2/14to1/14 1/14to0/14" id="route53" />
<route edges="14/0to14/1 14/1to14/2 14/2to14/3 14/3to14/4 14/4to14/5 14/5to14/6 14/6to14/7 14/7to14/8 14/8to14/9 14/9to14/10 14/10to14/11 14/11to14/12 14/12to14/13 14/13to14/14 14/14to14/15 14/15to14/16 14/16to14/17 14/17to14/18 14/18to14/19 14/19to14/20 14/20to14/21 14/21to14/22 14/22to14/23 14/23to14/24 14/24to14/25 14/25to14/26 14/26to14/27 14/27to14/28 14/28to14/29 14/29to14/30 14/30to14/31" id="route54" />
<route edges="14/31to14/30 14/30to14/29 14/29to14/28 14/28to14/27 14/27to14/26 14/26to14/25 14/25to14/24 14/24to14/23 14/23to14/22 14/22to14/21 14/21to14/20 14/20to14/19 14/19to14/18 14/18to14/17 14/17to14/16 14/16to14/15 14/15to14/14 14/14to14/13 14/13to14/12 14/12to14/11 14/11to14/10 14/10to14/9 14/9to14/8 14/8to14/7 14/7to14/6 14/6to14/5 14/5to14/4 14/4to14/3 14/3to14/2 14/2to14/1 14/1to14/0" id="route55" />
<route edges="0/15to1/15 1/15to2/15 2/15to3/15 3/15to4/15 4/15to5/15 5/15to6/15 6/15to7/15 7/15to8/15 8/15to9/15 9/15to10/15 10/15to11/15 11/15to12/15 12/15to13/15 13/15to14/15 14/15to15/15 15/15to16/15 16/15to17/15 17/15to18/15 18/15to19/15 19/15to20/15 20/15to21/15 21/15to22/15 22/15to23/15 23/15to24/15 24/15to25/15 25/15to26/15 26/15to27/15 27/15to28/15 28/15to29/15 29/15to30/15 30/15to31/15" id="route56" />
<route edges="31/15to30/15 30/15to29/15 29/15to28/15 28/15to27/15 27/15to26/15 26/15to25/15 25/15to24/15 24/15to23/15 23/15to22/15 22/15to21/15 21/15to20/15 20/15to19/15 19/15to18/15 18/15to17/15 17/15to16/15 16/15to15/15 15/15to14/15 14/15to13/15 13/15to12/15 12/15to11/15 11/15to10/15 10/15to9/15 9/15to8/15 8/15to7/15 7/15to6/15 6/15to5/15 5/15to4/15 4/15to3/15 3/15to2/15 2/15to1/15 1/15to0/15" id="route57" />
<route edges="15/0to15/1 15/1to15/2 15/2to15/3 15/3to15/4 15/4to15/5 15/5to15/6 15/6to15/7 15/7to15/8 15/8to15/9 15/9to15/10 15/10to15/11 15/11to15/12 15/12to15/13 15/13to15/14 15/14to15/15 15/15to15/16 15/16to15/17 15/17to15/18 15/18to15/19 15/19to15/20 15/20to15/21 15/21to15/22 15/22to15/23 15/23to15/24 15/24to15/25 15/25to15/26 15/26to15/27 15/27to15/28 15/28to15/29 15/29to15/30 15/30to15/31" id="route58" />
<route edges="15/31to15/30 15/30to15/29 15/29to15/28 15/28to15/27 15/27to15/26 15/26to15/25 15/25to15/24 15/24to15/23 15/23to15/22 15/22to15/21 15/21to15/20 15/20to15/19 15/19to15/18 15/18to15/17 15/17to15/16 15/16to15/15 15/15to15/14 15/14to15/13 15/13to15/12 15/12to15/11 15/11to15/10 15/10to15/9 15/9to15/8 15/8to15/7 15/7to15/6 15/6to15/5 15/5to15/4 15/4to15/3 15/3to15/2 15/2to15/1 15/1to15/0" id="route59" />
<route edges="0/16to1/16 1/16to2/16 2/16to3/16 3/16to4/16 4/16to5/16 5/16to6/16 6/16to7/16 7/16to8/16 8/16to9/16 9/16to10/16 10/16to11/16 11/16to12/16 12/16to13/16 13/16to14/16 14/16to15/16 15/16to16/16 16/16to17/16 17/16to18/16 18/16to19/16 19/16to20/16 20/16to21/16 21/16to22/16 22/16to23/16 23/16to24/16 24/16to25/16 25/16to26/16 26/16to27/16 27/16to28/16 28/16to29/16 29/16to30/16 30/16to31/16" id="route60" />
<route edges="31/16to30/16 30/16to29/16 29/16to28/16 28/16to27/16 27/16to26/16 26/16to25/16 25/16to24/16 24/16to23/16 23/16to22/16 22/16to21/16 21/16to20/16 20/16to19/16 19/16to18/16 18/16to17/16 17/16to16/16 16/16to15/16 15/16to14/16 14/16to13/16 13/16to12/16 12/16to11/16 11/16to10/16 10/16to9/16 9/16to8/16 8/16to7/16 7/16to6/16 6/16to5/16 5/16to4/16 4/16to3/16 3/16to2/16 2/16to1/16 1/16to0/16" id="route61" />
<route edges="16/0to16/1 16/1to16/2 16/2to16/3 16/3to16/4 16/4to16/5 16/5to16/6 16/6to16/7 16/7to16/8 16/8to16/9 16/9to16/10 16/10to16/11 16/11to16/12 16/12to16/13 16/13to16/14 16/14to16/15 16/15to16/16 16/16to16/17 16/17to16/18 16/18to16/19 16/19to16/20 16/20to16/21 16/21to16/22 16/22to16/23 16/23to16/24 16/24to16/25 16/25to16/26 16/26to16/27 16/27to16/28 16/28to16/29 16/29to16/30 16/30to16/31" id="route62" />
<route edges="16/31to16/30 16/30to16/29 16/29to16/28 16/28to16/27 16/27to16/26 16/26to16/25 16/25to16/24 16/24to16/23 16/23to16/22 16/22to16/21 16/21to16/20 16/20to16/19 16/19to16/18 16/18to16/17 16/17to16/16 16/16to16/15 16/15to16/14 16/14to16/13 16/13to16/12 16/12to16/11 16/11to16/10 16/10to16/9 16/9to16/8 16/8to16/7 16/7to16/6 16/6to16/5 16/5to16/4 16/4to16/3 16/3to16/2 16/2to16/1 16/1to16/0" id="route63" />
<route edges="0/17to1/17 1/17to2/17 2/17to3/17 3/17to4/17 4/17to5/17 5/17to6/17 6/17to7/17 7/17to8/17 8/17to9/17 9/17to10/17 10/17to11/17 11/17to12/17 12/17to13/17 13/17to14/17 14/17to15/17 15/17to16/17 16/17to17/17 17/17to18/17 18/17to19/17 19/17to20/17 20/17to21/17 21/17to22/17 22/17to23/17 23/17to24/17 24/17to25/17 25/17to26/17 26/17to27/17 27/17to28/17 28/17to29/17 29/17to30/17 30/17to31/17" id="route64" />
<route edges="31/17to30/17 30/17to29/17 29/17to28/17 28/17to27/17 27/17to26/17 26/17to25/17 25/17to24/17 24/17to23/17 23/17to22/17 22/17to21/17 21/17to20/17 20/17to19/17 19/17to18/17 18/17to17/17 17/17to16/17 16/17to15/17 15/17to14/17 14/17to13/17 13/17to12/17 12/17to11/17 11/17to10/17 10/17to9/17 9/17to8/17 8/17to7/17 7/17to6/17 6/17to5/17 5/17to4/17 4/17to3/17 3/17to2/17 2/17to1/17 1/17to0/17" id="route65" />
<route edges="17/0to17/1 17/1to17/2 17/2to17/3 17/3to17/4 17/4to17/5 17/5to17/6 17/6to17/7 17/7to17/8 17/8to17/9 17/9to17/10 17/10to17/11 17/11to17/12 17/12to17/13 17/13to17/14 17/14to17/15 17/15to17/16 17/16to17/17 17/17to17/18 17/18to17/19 17/19to17/20 17/20to17/21 17/21to17/22 17/22to17/23 17/23to17/24 17/24to17/25 17/25to17/26 17/26to17/27 17/27to17/28 17/28to17/29 17/29to17/30 17/30to17/31" id="route66" />
<route edges="17/31to17/30 17/30to17/29 17/29to17/28 17/28to17/27 17/27to17/26 17/26to17/25 17/25to17/24 17/24to17/23 17/23to17/22 17/22to17/21 17/21to17/20 17/20to17/19 17/19to17/18 17/18to17/17 17/17to17/16 17/16to17/15 17/15to17/14 17/14to17/13 17/13to17/12 17/12to17/11 17/11to17/10 17/10to17/9 17/9to17/8 17/8to17/7 17/7to17/6 17/6to17/5 17/5to17/4 17/4to17/3 17/3to17/2 17/2to17/1 17/1to17/0" id="route67" />
<route edges="0/18to1/18 1/18to2/18 2/18to3/18 3/18to4/18 4/18to5/18 5/18to6/18 6/18to7/18 7/18to8/18 8/18to9/18 9/18to10/18 10/18to11/18 11/18to12/18 12/18to13/18 13/18to14/18 14/18to15/18 15/18to16/18 16/18to17/18 17/18to18/18 18/18to19/18 19/18to20/18 20/18to21/18 21/18to22/18 22/18to23/18 23/18to24/18 24/18to25/18 25/18to26/18 26/18to27/18 27/18to28/18 28/18to29/18 29/18to30/18 30/18to31/18" id="route68" />
<route edges="31/18to30/18 30/18to29/18 29/18to28/18 28/18to27/18 27/18to26/18 26/18to25/18 25/18to24/18 24/18to23/18 23/18to22/18 22/18to21/18 21/18to20/18 20/18to19/18 19/18to18/18 18/18to17/18 17/18to16/18 16/18to15/18 15/18to14/18 14/18to13/18 13/18to12/18 12/18to11/18 11/18to10/18 10/18to9/18 9/18to8/18 8/18to7/18 7/18to6/18 6/18to5/18 5/18to4/18 4/18to3/18 3/18to2/18 2/18to1/18 1/18to0/18" id="route69" />
<route edges="18/0to18/1 18/1to18/2 18/2to18/3 18/3to18/4 18/4to18/5 18/5to18/6 18/6to18/7 18/7to18/8 18/8to18/9 18/9to18/10 18/10to18/11 18/11to18/12 18/12to18/13 18/13to18/14 18/14to18/15 18/15to18/16 18/16to18/17 18/17to18/18 18/18to18/19 18/19to18/20 18/20to18/21 18/21to18/22 18/22to18/23 18/23to18/24 18/24to18/25 18/25to18/26 18/26to18/27 18/27to18/28 18/28to18/29 18/29to18/30 18/30to18/31" id="route70" />
<route edges="18/31to18/30 18/30to18/29 18/29to18/28 18/28to18/27 18/27to18/26 18/26to18/25 18/25to18/24 18/24to18/23 18/23to18/22 18/22to18/21 18/21to18/20 18/20to18/19 18/19to18/18 18/18to18/17 18/17to18/16 18/16to18/15 18/15to18/14 18/14to18/13 18/13to18/12 18/12to18/11 18/11to18/10 18/10to18/9 18/9to18/8 18/8to18/7 18/7to18/6 18/6to18/5 18/5to18/4 18/4to18/3 18/3to18/2 18/2to18/1 18/1to18/0" id="route71" />
<route edges="0/19to1/19 1/19to2/19 2/19to3/19 3/19to4/19 4/19to5/19 5/19to6/19 6/19to7/19 7/19to8/19 8/19to9/19 9/19to10/19 10/19to11/19 11/19to12/19 12/19to13/19 13/19to14/19 14/19to15/19 15/19to16/19 16/19to17/19 17/19to18/19 18/19to19/19 19/19to20/19 20/19to21/19 21/19to22/19 22/19to23/19 23/19to24/19 24/19to25/19 25/19to26/19 26/19to27/19 27/19to28/19 28/19to29/19 29/19to30/19 30/19to31/19" id="route72" />
<route edges="31/19to30/19 30/19to29/19 29/19to28/19 28/19to27/19 27/19to26/19 26/19to25/19 25/19to24/19 24/19to23/19 23/19to22/19 22/19to21/19 21/19to20/19 20/19to19/19 19/19to18/19 18/19to17/19 17/19to16/19 16/19to15/19 15/19to14/19 14/19to13/19 13/19to12/19 12/19to11/19 11/19to10/19 10/19to9/19 9/19to8/19 8/19to7/19 7/19to6/19 6/19to5/19 5/19to4/19 4/19to3/19 3/19to2/19 2/19to1/19 1/19to0/19" id="route73" />
<route edges="19/0to19/1 19/1to19/2 19/2to19/3 19/3to19/4 19/4to19/5 19/5to19/6 19/6to19/7 19/7to19/8 19/8to19/9 19/9to19/10 19/10to19/11 19/11to19/12 19/12to19/13 19/13to19/14 19/14to19/15 19/15to19/16 19/16to19/17 19/17to19/18 19/18to19/19 19/19to19/20 19/20to19/21 19/21to19/22 19/22to19/23 19/23to19/24 19/24to19/25 19/25to19/26 19/26to19/27 19/27to19/28 19/28to19/29 19/29to19/30 19/30to19/31" id="route74" />
<route edges="19/31to19/30 19/30to19/29 19/29to19/28 19/28to19/27 19/27to19/26 19/26to19/25 19/25to19/24 19/24to19/23 19/23to19/22 19/22to19/21 19/21to19/20 19/20to19/19 19/19to19/18 19/18to19/17 19/17to19/16 19/16to19/15 19/15to19/14 19/14to19/13 19/13to19/12 19/12to19/11 19/11to19/10 19/10to19/9 19/9to19/8 19/8to19/7 19/7to19/6 19/6to19/5 19/5to19/4 19/4to19/3 19/3to19/2 19/2to19/1 19/1to19/0" id="route75" />
<route edges="0/20to1/20 1/20to2/20 2/20to3/20 3/20to4/20 4/20to5/20 5/20to6/20 6/20to7/20 7/20to8/20 8/20to9/20 9/20to10/20 10/20to11/20 11/20to12/20 12/20to13/20 13/20to14/20 14/20to15/20 15/20to16/20 16/20to17/20 17/20to18/20 18/20to19/20 19/20to20/20 20/20to21/20 21/20to22/20 22/20to23/20 23/20to24/20 24/20to25/20 25/20to26/20 26/20to27/20 27/20to28/20 28/20to29/20 29/20to30/20 30/20to31/20" id="route76" />