<?xml version="1.0" encoding="UTF-8"?>

<!-- generated on Tue Jan  8 00:20:40 2019 by SUMO netgenerate Version 0.25.0
<?xml version="1.0" encoding="UTF-8"?>

<configuration xmlns:xsi="http://www.w3.org/2001/XMLSchema-instance" xsi:noNamespaceSchemaLocation="http://sumo.dlr.de/xsd/netgenerateConfiguration.xsd">

    <grid_network>
        <grid value="true"/>
        <grid.number value="8"/>
        <grid.length value="300"/>
    </grid_network>

    <output>
        <output-file value="roadnet_sumo_6_6.net.xml"/>
    </output>

    <edge_removal>
        <remove-edges.input-file value="./remove_edges_6_6"/>
    </edge_removal>

    <processing>
        <no-internal-links value="true"/>
        <no-turnarounds value="true"/>
    </processing>

    <building_defaults>
        <default.lanenumber value="1"/>
        <default.speed value="16.67"/>
        <default-junction-type value="traffic_light"/>
    </building_defaults>

</configuration>
-->

<net version="0.25" xmlns:xsi="http://www.w3.org/2001/XMLSchema-instance" xsi:noNamespaceSchemaLocation="http://sumo.dlr.de/xsd/net_file.xsd">

    <location netOffset="0.00,0.00" convBoundary="0.00,0.00,2100.00,2100.00" origBoundary="0.00,0.00,2100.00,2100.00" projParameter="!"/>

    <edge id="0/1to1/1" from="0/1" to="1/1" priority="-1">
        <lane id="0/1to1/1_0" index="0" speed="16.67" length="300.00" shape="0.00,298.35 295.25,298.35"/>
    </edge>
    <edge id="0/2to1/2" from="0/2" to="1/2" priority="-1">
        <lane id="0/2to1/2_0" index="0" speed="16.67" length="300.00" shape="0.00,598.35 295.25,598.35"/>
    </edge>
    <edge id="0/3to1/3" from="0/3" to="1/3" priority="-1">
        <lane id="0/3to1/3_0" index="0" speed="16.67" length="300.00" shape="0.00,898.35 295.25,898.35"/>
    </edge>
    <edge id="0/4to1/4" from="0/4" to="1/4" priority="-1">
        <lane id="0/4to1/4_0" index="0" speed="16.67" length="300.00" shape="0.00,1198.35 295.25,1198.35"/>
    </edge>
    <edge id="0/5to1/5" from="0/5" to="1/5" priority="-1">
        <lane id="0/5to1/5_0" index="0" speed="16.67" length="300.00" shape="0.00,1498.35 295.25,1498.35"/>
    </edge>
    <edge id="0/6to1/6" from="0/6" to="1/6" priority="-1">
        <lane id="0/6to1/6_0" index="0" speed="16.67" length="300.00" shape="0.00,1798.35 295.25,1798.35"/>
    </edge>
    <edge id="1/0to1/1" from="1/0" to="1/1" priority="-1">
        <lane id="1/0to1/1_0" index="0" speed="16.67" length="300.00" shape="301.65,0.00 301.65,295.25"/>
    </edge>
    <edge id="1/1to0/1" from="1/1" to="0/1" priority="-1">
        <lane id="1/1to0/1_0" index="0" speed="16.67" length="300.00" shape="295.25,301.65 0.00,301.65"/>
    </edge>
    <edge id="1/1to1/0" from="1/1" to="1/0" priority="-1">
        <lane id="1/1to1/0_0" index="0" speed="16.67" length="300.00" shape="298.35,295.25 298.35,0.00"/>
    </edge>
    <edge id="1/1to1/2" from="1/1" to="1/2" priority="-1">
        <lane id="1/1to1/2_0" index="0" speed="16.67" length="300.00" shape="301.65,304.75 301.65,595.25"/>
    </edge>
    <edge id="1/1to2/1" from="1/1" to="2/1" priority="-1">
        <lane id="1/1to2/1_0" index="0" speed="16.67" length="300.00" shape="304.75,298.35 595.25,298.35"/>
    </edge>
    <edge id="1/2to0/2" from="1/2" to="0/2" priority="-1">
        <lane id="1/2to0/2_0" index="0" speed="16.67" length="300.00" shape="295.25,601.65 0.00,601.65"/>
    </edge>
    <edge id="1/2to1/1" from="1/2" to="1/1" priority="-1">
        <lane id="1/2to1/1_0" index="0" speed="16.67" length="300.00" shape="298.35,595.25 298.35,304.75"/>
    </edge>
    <edge id="1/2to1/3" from="1/2" to="1/3" priority="-1">
        <lane id="1/2to1/3_0" index="0" speed="16.67" length="300.00" shape="301.65,604.75 301.65,895.25"/>
    </edge>
    <edge id="1/2to2/2" from="1/2" to="2/2" priority="-1">
        <lane id="1/2to2/2_0" index="0" speed="16.67" length="300.00" shape="304.75,598.35 595.25,598.35"/>
    </edge>
    <edge id="1/3to0/3" from="1/3" to="0/3" priority="-1">
        <lane id="1/3to0/3_0" index="0" speed="16.67" length="300.00" shape="295.25,901.65 0.00,901.65"/>
    </edge>
    <edge id="1/3to1/2" from="1/3" to="1/2" priority="-1">
        <lane id="1/3to1/2_0" index="0" speed="16.67" length="300.00" shape="298.35,895.25 298.35,604.75"/>
    </edge>
    <edge id="1/3to1/4" from="1/3" to="1/4" priority="-1">
        <lane id="1/3to1/4_0" index="0" speed="16.67" length="300.00" shape="301.65,904.75 301.65,1195.25"/>
    </edge>
    <edge id="1/3to2/3" from="1/3" to="2/3" priority="-1">
        <lane id="1/3to2/3_0" index="0" speed="16.67" length="300.00" shape="304.75,898.35 595.25,898.35"/>
    </edge>
    <edge id="1/4to0/4" from="1/4" to="0/4" priority="-1">
        <lane id="1/4to0/4_0" index="0" speed="16.67" length="300.00" shape="295.25,1201.65 0.00,1201.65"/>
    </edge>
    <edge id="1/4to1/3" from="1/4" to="1/3" priority="-1">
        <lane id="1/4to1/3_0" index="0" speed="16.67" length="300.00" shape="298.35,1195.25 298.35,904.75"/>
    </edge>
    <edge id="1/4to1/5" from="1/4" to="1/5" priority="-1">
        <lane id="1/4to1/5_0" index="0" speed="16.67" length="300.00" shape="301.65,1204.75 301.65,1495.25"/>
    </edge>
    <edge id="1/4to2/4" from="1/4" to="2/4" priority="-1">
        <lane id="1/4to2/4_0" index="0" speed="16.67" length="300.00" shape="304.75,1198.35 595.25,1198.35"/>
    </edge>
    <edge id="1/5to0/5" from="1/5" to="0/5" priority="-1">
        <lane id="1/5to0/5_0" index="0" speed="16.67" length="300.00" shape="295.25,1501.65 0.00,1501.65"/>
    </edge>
    <edge id="1/5to1/4" from="1/5" to="1/4" priority="-1">
        <lane id="1/5to1/4_0" index="0" speed="16.67" length="300.00" shape="298.35,1495.25 298.35,1204.75"/>
    </edge>
    <edge id="1/5to1/6" from="1/5" to="1/6" priority="-1">
        <lane id="1/5to1/6_0" index="0" speed="16.67" length="300.00" shape="301.65,1504.75 301.65,1795.25"/>
    </edge>
    <edge id="1/5to2/5" from="1/5" to="2/5" priority="-1">
        <lane id="1/5to2/5_0" index="0" speed="16.67" length="300.00" shape="304.75,1498.35 595.25,1498.35"/>
    </edge>
    <edge id="1/6to0/6" from="1/6" to="0/6" priority="-1">
        <lane id="1/6to0/6_0" index="0" speed="16.67" length="300.00" shape="295.25,1801.65 0.00,1801.65"/>
    </edge>
    <edge id="1/6to1/5" from="1/6" to="1/5" priority="-1">
        <lane id="1/6to1/5_0" index="0" speed="16.67" length="300.00" shape="298.35,1795.25 298.35,1504.75"/>
    </edge>
    <edge id="1/6to1/7" from="1/6" to="1/7" priority="-1">
        <lane id="1/6to1/7_0" index="0" speed="16.67" length="300.00" shape="301.65,1804.75 301.65,2100.00"/>
    </edge>
    <edge id="1/6to2/6" from="1/6" to="2/6" priority="-1">
        <lane id="1/6to2/6_0" index="0" speed="16.67" length="300.00" shape="304.75,1798.35 595.25,1798.35"/>
    </edge>
    <edge id="1/7to1/6" from="1/7" to="1/6" priority="-1">
        <lane id="1/7to1/6_0" index="0" speed="16.67" length="300.00" shape="298.35,2100.00 298.35,1804.75"/>
    </edge>
    <edge id="2/0to2/1" from="2/0" to="2/1" priority="-1">
        <lane id="2/0to2/1_0" index="0" speed="16.67" length="300.00" shape="601.65,0.00 601.65,295.25"/>
    </edge>
    <edge id="2/1to1/1" from="2/1" to="1/1" priority="-1">
        <lane id="2/1to1/1_0" index="0" speed="16.67" length="300.00" shape="595.25,301.65 304.75,301.65"/>
    </edge>
    <edge id="2/1to2/0" from="2/1" to="2/0" priority="-1">
        <lane id="2/1to2/0_0" index="0" speed="16.67" length="300.00" shape="598.35,295.25 598.35,0.00"/>
    </edge>
    <edge id="2/1to2/2" from="2/1" to="2/2" priority="-1">
        <lane id="2/1to2/2_0" index="0" speed="16.67" length="300.00" shape="601.65,304.75 601.65,595.25"/>
    </edge>
    <edge id="2/1to3/1" from="2/1" to="3/1" priority="-1">
        <lane id="2/1to3/1_0" index="0" speed="16.67" length="300.00" shape="604.75,298.35 895.25,298.35"/>
    </edge>
    <edge id="2/2to1/2" from="2/2" to="1/2" priority="-1">
        <lane id="2/2to1/2_0" index="0" speed="16.67" length="300.00" shape="595.25,601.65 304.75,601.65"/>
    </edge>
    <edge id="2/2to2/1" from="2/2" to="2/1" priority="-1">
        <lane id="2/2to2/1_0" index="0" speed="16.67" length="300.00" shape="598.35,595.25 598.35,304.75"/>
    </edge>
    <edge id="2/2to2/3" from="2/2" to="2/3" priority="-1">
        <lane id="2/2to2/3_0" index="0" speed="16.67" length="300.00" shape="601.65,604.75 601.65,895.25"/>
    </edge>
    <edge id="2/2to3/2" from="2/2" to="3/2" priority="-1">
        <lane id="2/2to3/2_0" index="0" speed="16.67" length="300.00" shape="604.75,598.35 895.25,598.35"/>
    </edge>
    <edge id="2/3to1/3" from="2/3" to="1/3" priority="-1">
        <lane id="2/3to1/3_0" index="0" speed="16.67" length="300.00" shape="595.25,901.65 304.75,901.65"/>
    </edge>
    <edge id="2/3to2/2" from="2/3" to="2/2" priority="-1">
        <lane id="2/3to2/2_0" index="0" speed="16.67" length="300.00" shape="598.35,895.25 598.35,604.75"/>
    </edge>
    <edge id="2/3to2/4" from="2/3" to="2/4" priority="-1">
        <lane id="2/3to2/4_0" index="0" speed="16.67" length="300.00" shape="601.65,904.75 601.65,1195.25"/>
    </edge>
    <edge id="2/3to3/3" from="2/3" to="3/3" priority="-1">
        <lane id="2/3to3/3_0" index="0" speed="16.67" length="300.00" shape="604.75,898.35 895.25,898.35"/>
    </edge>
    <edge id="2/4to1/4" from="2/4" to="1/4" priority="-1">
        <lane id="2/4to1/4_0" index="0" speed="16.67" length="300.00" shape="595.25,1201.65 304.75,1201.65"/>
    </edge>
    <edge id="2/4to2/3" from="2/4" to="2/3" priority="-1">
        <lane id="2/4to2/3_0" index="0" speed="16.67" length="300.00" shape="598.35,1195.25 598.35,904.75"/>
    </edge>
    <edge id="2/4to2/5" from="2/4" to="2/5" priority="-1">
        <lane id="2/4to2/5_0" index="0" speed="16.67" length="300.00" shape="601.65,1204.75 601.65,1495.25"/>
    </edge>
    <edge id="2/4to3/4" from="2/4" to="3/4" priority="-1">
        <lane id="2/4to3/4_0" index="0" speed="16.67" length="300.00" shape="604.75,1198.35 895.25,1198.35"/>
    </edge>
    <edge id="2/5to1/5" from="2/5" to="1/5" priority="-1">
        <lane id="2/5to1/5_0" index="0" speed="16.67" length="300.00" shape="595.25,1501.65 304.75,1501.65"/>
    </edge>
    <edge id="2/5to2/4" from="2/5" to="2/4" priority="-1">
        <lane id="2/5to2/4_0" index="0" speed="16.67" length="300.00" shape="598.35,1495.25 598.35,1204.75"/>
    </edge>
    <edge id="2/5to2/6" from="2/5" to="2/6" priority="-1">
        <lane id="2/5to2/6_0" index="0" speed="16.67" length="300.00" shape="601.65,1504.75 601.65,1795.25"/>
    </edge>
    <edge id="2/5to3/5" from="2/5" to="3/5" priority="-1">
        <lane id="2/5to3/5_0" index="0" speed="16.67" length="300.00" shape="604.75,1498.35 895.25,1498.35"/>
    </edge>
    <edge id="2/6to1/6" from="2/6" to="1/6" priority="-1">
        <lane id="2/6to1/6_0" index="0" speed="16.67" length="300.00" shape="595.25,1801.65 304.75,1801.65"/>
    </edge>
    <edge id="2/6to2/5" from="2/6" to="2/5" priority="-1">
        <lane id="2/6to2/5_0" index="0" speed="16.67" length="300.00" shape="598.35,1795.25 598.35,1504.75"/>
    </edge>
    <edge id="2/6to2/7" from="2/6" to="2/7" priority="-1">
        <lane id="2/6to2/7_0" index="0" speed="16.67" length="300.00" shape="601.65,1804.75 601.65,2100.00"/>
    </edge>
    <edge id="2/6to3/6" from="2/6" to="3/6" priority="-1">
        <lane id="2/6to3/6_0" index="0" speed="16.67" length="300.00" shape="604.75,1798.35 895.25,1798.35"/>
    </edge>
    <edge id="2/7to2/6" from="2/7" to="2/6" priority="-1">
        <lane id="2/7to2/6_0" index="0" speed="16.67" length="300.00" shape="598.35,2100.00 598.35,1804.75"/>
    </edge>
    <edge id="3/0to3/1" from="3/0" to="3/1" priority="-1">
        <lane id="3/0to3/1_0" index="0" speed="16.67" length="300.00" shape="901.65,0.00 901.65,295.25"/>
    </edge>
    <edge id="3/1to2/1" from="3/1" to="2/1" priority="-1">
        <lane id="3/1to2/1_0" index="0" speed="16.67" length="300.00" shape="895.25,301.65 604.75,301.65"/>
    </edge>
    <edge id="3/1to3/0" from="3/1" to="3/0" priority="-1">
        <lane id="3/1to3/0_0" index="0" speed="16.67" length="300.00" shape="898.35,295.25 898.35,0.00"/>
    </edge>
    <edge id="3/1to3/2" from="3/1" to="3/2" priority="-1">
        <lane id="3/1to3/2_0" index="0" speed="16.67" length="300.00" shape="901.65,304.75 901.65,595.25"/>
    </edge>
    <edge id="3/1to4/1" from="3/1" to="4/1" priority="-1">
        <lane id="3/1to4/1_0" index="0" speed="16.67" length="300.00" shape="904.75,298.35 1195.25,298.35"/>
    </edge>
    <edge id="3/2to2/2" from="3/2" to="2/2" priority="-1">
        <lane id="3/2to2/2_0" index="0" speed="16.67" length="300.00" shape="895.25,601.65 604.75,601.65"/>
    </edge>
    <edge id="3/2to3/1" from="3/2" to="3/1" priority="-1">
        <lane id="3/2to3/1_0" index="0" speed="16.67" length="300.00" shape="898.35,595.25 898.35,304.75"/>
    </edge>
    <edge id="3/2to3/3" from="3/2" to="3/3" priority="-1">
        <lane id="3/2to3/3_0" index="0" speed="16.67" length="300.00" shape="901.65,604.75 901.65,895.25"/>
    </edge>
    <edge id="3/2to4/2" from="3/2" to="4/2" priority="-1">
        <lane id="3/2to4/2_0" index="0" speed="16.67" length="300.00" shape="904.75,598.35 1195.25,598.35"/>
    </edge>
    <edge id="3/3to2/3" from="3/3" to="2/3" priority="-1">
        <lane id="3/3to2/3_0" index="0" speed="16.67" length="300.00" shape="895.25,901.65 604.75,901.65"/>
    </edge>
    <edge id="3/3to3/2" from="3/3" to="3/2" priority="-1">
        <lane id="3/3to3/2_0" index="0" speed="16.67" length="300.00" shape="898.35,895.25 898.35,604.75"/>
    </edge>
    <edge id="3/3to3/4" from="3/3" to="3/4" priority="-1">
        <lane id="3/3to3/4_0" index="0" speed="16.67" length="300.00" shape="901.65,904.75 901.65,1195.25"/>
    </edge>
    <edge id="3/3to4/3" from="3/3" to="4/3" priority="-1">
        <lane id="3/3to4/3_0" index="0" speed="16.67" length="300.00" shape="904.75,898.35 1195.25,898.35"/>
    </edge>
    <edge id="3/4to2/4" from="3/4" to="2/4" priority="-1">
        <lane id="3/4to2/4_0" index="0" speed="16.67" length="300.00" shape="895.25,1201.65 604.75,1201.65"/>
    </edge>
    <edge id="3/4to3/3" from="3/4" to="3/3" priority="-1">
        <lane id="3/4to3/3_0" index="0" speed="16.67" length="300.00" shape="898.35,1195.25 898.35,904.75"/>
    </edge>
    <edge id="3/4to3/5" from="3/4" to="3/5" priority="-1">
        <lane id="3/4to3/5_0" index="0" speed="16.67" length="300.00" shape="901.65,1204.75 901.65,1495.25"/>
    </edge>
    <edge id="3/4to4/4" from="3/4" to="4/4" priority="-1">
        <lane id="3/4to4/4_0" index="0" speed="16.67" length="300.00" shape="904.75,1198.35 1195.25,1198.35"/>
    </edge>
    <edge id="3/5to2/5" from="3/5" to="2/5" priority="-1">
        <lane id="3/5to2/5_0" index="0" speed="16.67" length="300.00" shape="895.25,1501.65 604.75,1501.65"/>
    </edge>
    <edge id="3/5to3/4" from="3/5" to="3/4" priority="-1">
        <lane id="3/5to3/4_0" index="0" speed="16.67" length="300.00" shape="898.35,1495.25 898.35,1204.75"/>
    </edge>
    <edge id="3/5to3/6" from="3/5" to="3/6" priority="-1">
        <lane id="3/5to3/6_0" index="0" speed="16.67" length="300.00" shape="901.65,1504.75 901.65,1795.25"/>
    </edge>
    <edge id="3/5to4/5" from="3/5" to="4/5" priority="-1">
        <lane id="3/5to4/5_0" index="0" speed="16.67" length="300.00" shape="904.75,1498.35 1195.25,1498.35"/>
    </edge>
    <edge id="3/6to2/6" from="3/6" to="2/6" priority="-1">
        <lane id="3/6to2/6_0" index="0" speed="16.67" length="300.00" shape="895.25,1801.65 604.75,1801.65"/>
    </edge>
    <edge id="3/6to3/5" from="3/6" to="3/5" priority="-1">
        <lane id="3/6to3/5_0" index="0" speed="16.67" length="300.00" shape="898.35,1795.25 898.35,1504.75"/>
    </edge>
    <edge id="3/6to3/7" from="3/6" to="3/7" priority="-1">
        <lane id="3/6to3/7_0" index="0" speed="16.67" length="300.00" shape="901.65,1804.75 901.65,2100.00"/>
    </edge>
    <edge id="3/6to4/6" from="3/6" to="4/6" priority="-1">
        <lane id="3/6to4/6_0" index="0" speed="16.67" length="300.00" shape="904.75,1798.35 1195.25,1798.35"/>
    </edge>
    <edge id="3/7to3/6" from="3/7" to="3/6" priority="-1">
        <lane id="3/7to3/6_0" index="0" speed="16.67" length="300.00" shape="898.35,2100.00 898.35,1804.75"/>
    </edge>
    <edge id="4/0to4/1" from="4/0" to="4/1" priority="-1">
        <lane id="4/0to4/1_0" index="0" speed="16.67" length="300.00" shape="1201.65,0.00 1201.65,295.25"/>
    </edge>
    <edge id="4/1to3/1" from="4/1" to="3/1" priority="-1">
        <lane id="4/1to3/1_0" index="0" speed="16.67" length="300.00" shape="1195.25,301.65 904.75,301.65"/>
    </edge>
    <edge id="4/1to4/0" from="4/1" to="4/0" priority="-1">
        <lane id="4/1to4/0_0" index="0" speed="16.67" length="300.00" shape="1198.35,295.25 1198.35,0.00"/>
    </edge>
    <edge id="4/1to4/2" from="4/1" to="4/2" priority="-1">
        <lane id="4/1to4/2_0" index="0" speed="16.67" length="300.00" shape="1201.65,304.75 1201.65,595.25"/>
    </edge>
    <edge id="4/1to5/1" from="4/1" to="5/1" priority="-1">
        <lane id="4/1to5/1_0" index="0" speed="16.67" length="300.00" shape="1204.75,298.35 1495.25,298.35"/>
    </edge>
    <edge id="4/2to3/2" from="4/2" to="3/2" priority="-1">
        <lane id="4/2to3/2_0" index="0" speed="16.67" length="300.00" shape="1195.25,601.65 904.75,601.65"/>
    </edge>
    <edge id="4/2to4/1" from="4/2" to="4/1" priority="-1">
        <lane id="4/2to4/1_0" index="0" speed="16.67" length="300.00" shape="1198.35,595.25 1198.35,304.75"/>
    </edge>
    <edge id="4/2to4/3" from="4/2" to="4/3" priority="-1">
        <lane id="4/2to4/3_0" index="0" speed="16.67" length="300.00" shape="1201.65,604.75 1201.65,895.25"/>
    </edge>
    <edge id="4/2to5/2" from="4/2" to="5/2" priority="-1">
        <lane id="4/2to5/2_0" index="0" speed="16.67" length="300.00" shape="1204.75,598.35 1495.25,598.35"/>
    </edge>
    <edge id="4/3to3/3" from="4/3" to="3/3" priority="-1">
        <lane id="4/3to3/3_0" index="0" speed="16.67" length="300.00" shape="1195.25,901.65 904.75,901.65"/>
    </edge>
    <edge id="4/3to4/2" from="4/3" to="4/2" priority="-1">
        <lane id="4/3to4/2_0" index="0" speed="16.67" length="300.00" shape="1198.35,895.25 1198.35,604.75"/>
    </edge>
    <edge id="4/3to4/4" from="4/3" to="4/4" priority="-1">
        <lane id="4/3to4/4_0" index="0" speed="16.67" length="300.00" shape="1201.65,904.75 1201.65,1195.25"/>
    </edge>
    <edge id="4/3to5/3" from="4/3" to="5/3" priority="-1">
        <lane id="4/3to5/3_0" index="0" speed="16.67" length="300.00" shape="1204.75,898.35 1495.25,898.35"/>
    </edge>
    <edge id="4/4to3/4" from="4/4" to="3/4" priority="-1">
        <lane id="4/4to3/4_0" index="0" speed="16.67" length="300.00" shape="1195.25,1201.65 904.75,1201.65"/>
    </edge>
    <edge id="4/4to4/3" from="4/4" to="4/3" priority="-1">
        <lane id="4/4to4/3_0" index="0" speed="16.67" length="300.00" shape="1198.35,1195.25 1198.35,904.75"/>
    </edge>
    <edge id="4/4to4/5" from="4/4" to="4/5" priority="-1">
        <lane id="4/4to4/5_0" index="0" speed="16.67" length="300.00" shape="1201.65,1204.75 1201.65,1495.25"/>
    </edge>
    <edge id="4/4to5/4" from="4/4" to="5/4" priority="-1">
        <lane id="4/4to5/4_0" index="0" speed="16.67" length="300.00" shape="1204.75,1198.35 1495.25,1198.35"/>
    </edge>
    <edge id="4/5to3/5" from="4/5" to="3/5" priority="-1">
        <lane id="4/5to3/5_0" index="0" speed="16.67" length="300.00" shape="1195.25,1501.65 904.75,1501.65"/>
    </edge>
    <edge id="4/5to4/4" from="4/5" to="4/4" priority="-1">
        <lane id="4/5to4/4_0" index="0" speed="16.67" length="300.00" shape="1198.35,1495.25 1198.35,1204.75"/>
    </edge>
    <edge id="4/5to4/6" from="4/5" to="4/6" priority="-1">
        <lane id="4/5to4/6_0" index="0" speed="16.67" length="300.00" shape="1201.65,1504.75 1201.65,1795.25"/>
    </edge>
    <edge id="4/5to5/5" from="4/5" to="5/5" priority="-1">
        <lane id="4/5to5/5_0" index="0" speed="16.67" length="300.00" shape="1204.75,1498.35 1495.25,1498.35"/>
    </edge>
    <edge id="4/6to3/6" from="4/6" to="3/6" priority="-1">
        <lane id="4/6to3/6_0" index="0" speed="16.67" length="300.00" shape="1195.25,1801.65 904.75,1801.65"/>
    </edge>
    <edge id="4/6to4/5" from="4/6" to="4/5" priority="-1">
        <lane id="4/6to4/5_0" index="0" speed="16.67" length="300.00" shape="1198.35,1795.25 1198.35,1504.75"/>
    </edge>
    <edge id="4/6to4/7" from="4/6" to="4/7" priority="-1">
        <lane id="4/6to4/7_0" index="0" speed="16.67" length="300.00" shape="1201.65,1804.75 1201.65,2100.00"/>
    </edge>
    <edge id="4/6to5/6" from="4/6" to="5/6" priority="-1">
        <lane id="4/6to5/6_0" index="0" speed="16.67" length="300.00" shape="1204.75,1798.35 1495.25,1798.35"/>
    </edge>
    <edge id="4/7to4/6" from="4/7" to="4/6" priority="-1">
        <lane id="4/7to4/6_0" index="0" speed="16.67" length="300.00" shape="1198.35,2100.00 1198.35,1804.75"/>
    </edge>
    <edge id="5/0to5/1" from="5/0" to="5/1" priority="-1">
        <lane id="5/0to5/1_0" index="0" speed="16.67" length="300.00" shape="1501.65,0.00 1501.65,295.25"/>
    </edge>
    <edge id="5/1to4/1" from="5/1" to="4/1" priority="-1">
        <lane id="5/1to4/1_0" index="0" speed="16.67" length="300.00" shape="1495.25,301.65 1204.75,301.65"/>
    </edge>
    <edge id="5/1to5/0" from="5/1" to="5/0" priority="-1">
        <lane id="5/1to5/0_0" index="0" speed="16.67" length="300.00" shape="1498.35,295.25 1498.35,0.00"/>
    </edge>
    <edge id="5/1to5/2" from="5/1" to="5/2" priority="-1">
        <lane id="5/1to5/2_0" index="0" speed="16.67" length="300.00" shape="1501.65,304.75 1501.65,595.25"/>
    </edge>
    <edge id="5/1to6/1" from="5/1" to="6/1" priority="-1">
        <lane id="5/1to6/1_0" index="0" speed="16.67" length="300.00" shape="1504.75,298.35 1795.25,298.35"/>
    </edge>
    <edge id="5/2to4/2" from="5/2" to="4/2" priority="-1">
        <lane id="5/2to4/2_0" index="0" speed="16.67" length="300.00" shape="1495.25,601.65 1204.75,601.65"/>
    </edge>
    <edge id="5/2to5/1" from="5/2" to="5/1" priority="-1">
        <lane id="5/2to5/1_0" index="0" speed="16.67" length="300.00" shape="1498.35,595.25 1498.35,304.75"/>
    </edge>
    <edge id="5/2to5/3" from="5/2" to="5/3" priority="-1">
        <lane id="5/2to5/3_0" index="0" speed="16.67" length="300.00" shape="1501.65,604.75 1501.65,895.25"/>
    </edge>
    <edge id="5/2to6/2" from="5/2" to="6/2" priority="-1">
        <lane id="5/2to6/2_0" index="0" speed="16.67" length="300.00" shape="1504.75,598.35 1795.25,598.35"/>
    </edge>
    <edge id="5/3to4/3" from="5/3" to="4/3" priority="-1">
        <lane id="5/3to4/3_0" index="0" speed="16.67" length="300.00" shape="1495.25,901.65 1204.75,901.65"/>
    </edge>
    <edge id="5/3to5/2" from="5/3" to="5/2" priority="-1">
        <lane id="5/3to5/2_0" index="0" speed="16.67" length="300.00" shape="1498.35,895.25 1498.35,604.75"/>
    </edge>
    <edge id="5/3to5/4" from="5/3" to="5/4" priority="-1">
        <lane id="5/3to5/4_0" index="0" speed="16.67" length="300.00" shape="1501.65,904.75 1501.65,1195.25"/>
    </edge>
    <edge id="5/3to6/3" from="5/3" to="6/3" priority="-1">
        <lane id="5/3to6/3_0" index="0" speed="16.67" length="300.00" shape="1504.75,898.35 1795.25,898.35"/>
    </edge>
    <edge id="5/4to4/4" from="5/4" to="4/4" priority="-1">
        <lane id="5/4to4/4_0" index="0" speed="16.67" length="300.00" shape="1495.25,1201.65 1204.75,1201.65"/>
    </edge>
    <edge id="5/4to5/3" from="5/4" to="5/3" priority="-1">
        <lane id="5/4to5/3_0" index="0" speed="16.67" length="300.00" shape="1498.35,1195.25 1498.35,904.75"/>
    </edge>
    <edge id="5/4to5/5" from="5/4" to="5/5" priority="-1">
        <lane id="5/4to5/5_0" index="0" speed="16.67" length="300.00" shape="1501.65,1204.75 1501.65,1495.25"/>
    </edge>
    <edge id="5/4to6/4" from="5/4" to="6/4" priority="-1">
        <lane id="5/4to6/4_0" index="0" speed="16.67" length="300.00" shape="1504.75,1198.35 1795.25,1198.35"/>
    </edge>
    <edge id="5/5to4/5" from="5/5" to="4/5" priority="-1">
        <lane id="5/5to4/5_0" index="0" speed="16.67" length="300.00" shape="1495.25,1501.65 1204.75,1501.65"/>
    </edge>
    <edge id="5/5to5/4" from="5/5" to="5/4" priority="-1">
        <lane id="5/5to5/4_0" index="0" speed="16.67" length="300.00" shape="1498.35,1495.25 1498.35,1204.75"/>
    </edge>
    <edge id="5/5to5/6" from="5/5" to="5/6" priority="-1">
        <lane id="5/5to5/6_0" index="0" speed="16.67" length="300.00" shape="1501.65,1504.75 1501.65,1795.25"/>
    </edge>
    <edge id="5/5to6/5" from="5/5" to="6/5" priority="-1">
        <lane id="5/5to6/5_0" index="0" speed="16.67" length="300.00" shape="1504.75,1498.35 1795.25,1498.35"/>
    </edge>
    <edge id="5/6to4/6" from="5/6" to="4/6" priority="-1">
        <lane id="5/6to4/6_0" index="0" speed="16.67" length="300.00" shape="1495.25,1801.65 1204.75,1801.65"/>
    </edge>
    <edge id="5/6to5/5" from="5/6" to="5/5" priority="-1">
        <lane id="5/6to5/5_0" index="0" speed="16.67" length="300.00" shape="1498.35,1795.25 1498.35,1504.75"/>
    </edge>
    <edge id="5/6to5/7" from="5/6" to="5/7" priority="-1">
        <lane id="5/6to5/7_0" index="0" speed="16.67" length="300.00" shape="1501.65,1804.75 1501.65,2100.00"/>
    </edge>
    <edge id="5/6to6/6" from="5/6" to="6/6" priority="-1">
        <lane id="5/6to6/6_0" index="0" speed="16.67" length="300.00" shape="1504.75,1798.35 1795.25,1798.35"/>
    </edge>
    <edge id="5/7to5/6" from="5/7" to="5/6" priority="-1">
        <lane id="5/7to5/6_0" index="0" speed="16.67" length="300.00" shape="1498.35,2100.00 1498.35,1804.75"/>
    </edge>
    <edge id="6/0to6/1" from="6/0" to="6/1" priority="-1">
        <lane id="6/0to6/1_0" index="0" speed="16.67" length="300.00" shape="1801.65,0.00 1801.65,295.25"/>
    </edge>
    <edge id="6/1to5/1" from="6/1" to="5/1" priority="-1">
        <lane id="6/1to5/1_0" index="0" speed="16.67" length="300.00" shape="1795.25,301.65 1504.75,301.65"/>
    </edge>
    <edge id="6/1to6/0" from="6/1" to="6/0" priority="-1">
        <lane id="6/1to6/0_0" index="0" speed="16.67" length="300.00" shape="1798.35,295.25 1798.35,0.00"/>
    </edge>
    <edge id="6/1to6/2" from="6/1" to="6/2" priority="-1">
        <lane id="6/1to6/2_0" index="0" speed="16.67" length="300.00" shape="1801.65,304.75 1801.65,595.25"/>
    </edge>
    <edge id="6/1to7/1" from="6/1" to="7/1" priority="-1">
        <lane id="6/1to7/1_0" index="0" speed="16.67" length="300.00" shape="1804.75,298.35 2100.00,298.35"/>
    </edge>
    <edge id="6/2to5/2" from="6/2" to="5/2" priority="-1">
        <lane id="6/2to5/2_0" index="0" speed="16.67" length="300.00" shape="1795.25,601.65 1504.75,601.65"/>
    </edge>
    <edge id="6/2to6/1" from="6/2" to="6/1" priority="-1">
        <lane id="6/2to6/1_0" index="0" speed="16.67" length="300.00" shape="1798.35,595.25 1798.35,304.75"/>
    </edge>
    <edge id="6/2to6/3" from="6/2" to="6/3" priority="-1">
        <lane id="6/2to6/3_0" index="0" speed="16.67" length="300.00" shape="1801.65,604.75 1801.65,895.25"/>
    </edge>
    <edge id="6/2to7/2" from="6/2" to="7/2" priority="-1">
        <lane id="6/2to7/2_0" index="0" speed="16.67" length="300.00" shape="1804.75,598.35 2100.00,598.35"/>
    </edge>
    <edge id="6/3to5/3" from="6/3" to="5/3" priority="-1">
        <lane id="6/3to5/3_0" index="0" speed="16.67" length="300.00" shape="1795.25,901.65 1504.75,901.65"/>
    </edge>
    <edge id="6/3to6/2" from="6/3" to="6/2" priority="-1">
        <lane id="6/3to6/2_0" index="0" speed="16.67" length="300.00" shape="1798.35,895.25 1798.35,604.75"/>
    </edge>
    <edge id="6/3to6/4" from="6/3" to="6/4" priority="-1">
        <lane id="6/3to6/4_0" index="0" speed="16.67" length="300.00" shape="1801.65,904.75 1801.65,1195.25"/>
    </edge>
    <edge id="6/3to7/3" from="6/3" to="7/3" priority="-1">
        <lane id="6/3to7/3_0" index="0" speed="16.67" length="300.00" shape="1804.75,898.35 2100.00,898.35"/>
    </edge>
    <edge id="6/4to5/4" from="6/4" to="5/4" priority="-1">
        <lane id="6/4to5/4_0" index="0" speed="16.67" length="300.00" shape="1795.25,1201.65 1504.75,1201.65"/>
    </edge>
    <edge id="6/4to6/3" from="6/4" to="6/3" priority="-1">
        <lane id="6/4to6/3_0" index="0" speed="16.67" length="300.00" shape="1798.35,1195.25 1798.35,904.75"/>
    </edge>
    <edge id="6/4to6/5" from="6/4" to="6/5" priority="-1">
        <lane id="6/4to6/5_0" index="0" speed="16.67" length="300.00" shape="1801.65,1204.75 1801.65,1495.25"/>
    </edge>
    <edge id="6/4to7/4" from="6/4" to="7/4" priority="-1">
        <lane id="6/4to7/4_0" index="0" speed="16.67" length="300.00" shape="1804.75,1198.35 2100.00,1198.35"/>
    </edge>
    <edge id="6/5to5/5" from="6/5" to="5/5" priority="-1">
        <lane id="6/5to5/5_0" index="0" speed="16.67" length="300.00" shape="1795.25,1501.65 1504.75,1501.65"/>
    </edge>
    <edge id="6/5to6/4" from="6/5" to="6/4" priority="-1">
        <lane id="6/5to6/4_0" index="0" speed="16.67" length="300.00" shape="1798.35,1495.25 1798.35,1204.75"/>
    </edge>
    <edge id="6/5to6/6" from="6/5" to="6/6" priority="-1">
        <lane id="6/5to6/6_0" index="0" speed="16.67" length="300.00" shape="1801.65,1504.75 1801.65,1795.25"/>
    </edge>
    <edge id="6/5to7/5" from="6/5" to="7/5" priority="-1">
        <lane id="6/5to7/5_0" index="0" speed="16.67" length="300.00" shape="1804.75,1498.35 2100.00,1498.35"/>
    </edge>
    <edge id="6/6to5/6" from="6/6" to="5/6" priority="-1">
        <lane id="6/6to5/6_0" index="0" speed="16.67" length="300.00" shape="1795.25,1801.65 1504.75,1801.65"/>
    </edge>
    <edge id="6/6to6/5" from="6/6" to="6/5" priority="-1">
        <lane id="6/6to6/5_0" index="0" speed="16.67" length="300.00" shape="1798.35,1795.25 1798.35,1504.75"/>
    </edge>