<?xml version="1.0" encoding="UTF-8"?>

<!-- generated on Tue Jan  8 00:20:14 2019 by SUMO netgenerate Version 0.25.0
<?xml version="1.0" encoding="UTF-8"?>

<configuration xmlns:xsi="http://www.w3.org/2001/XMLSchema-instance" xsi:noNamespaceSchemaLocation="http://sumo.dlr.de/xsd/netgenerateConfiguration.xsd">

    <grid_network>
        <grid value="true"/>
        <grid.number value="8"/>
        <grid.length value="300"/>
    </grid_network>

    <output>
        <output-file value="roadnet_sumo_6_6_turn.net.xml"/>
    </output>

    <edge_removal>
        <remove-edges.input-file value="./remove_edges_6_6"/>
    </edge_removal>

    <processing>
        <no-internal-links value="true"/>
        <no-turnarounds value="true"/>
    </processing>

    <building_defaults>
        <default.lanenumber value="3"/>
        <default.speed value="16.67"/>
        <default-junction-type value="traffic_light"/>
    </building_defaults>

</configuration>
-->

<net version="0.25" xmlns:xsi="http://www.w3.org/2001/XMLSchema-instance" xsi:noNamespaceSchemaLocation="http://sumo.dlr.de/xsd/net_file.xsd">

    <location netOffset="0.00,0.00" convBoundary="0.00,0.00,2100.00,2100.00" origBoundary="0.00,0.00,2100.00,2100.00" projParameter="!"/>

    <edge id="0/1to1/1" from="0/1" to="1/1" priority="-1">
        <lane id="0/1to1/1_0" index="0" speed="16.67" length="300.00" shape="0.00,291.75 288.65,291.75"/>
        <lane id="0/1to1/1_1" index="1" speed="16.67" length="300.00" shape="0.00,295.05 288.65,295.05"/>
        <lane id="0/1to1/1_2" index="2" speed="16.67" length="300.00" shape="0.00,298.35 288.65,298.35"/>
    </edge>
    <edge id="0/2to1/2" from="0/2" to="1/2" priority="-1">
        <lane id="0/2to1/2_0" index="0" speed="16.67" length="300.00" shape="0.00,591.75 288.65,591.75"/>
        <lane id="0/2to1/2_1" index="1" speed="16.67" length="300.00" shape="0.00,595.05 288.65,595.05"/>
        <lane id="0/2to1/2_2" index="2" speed="16.67" length="300.00" shape="0.00,598.35 288.65,598.35"/>
    </edge>
    <edge id="0/3to1/3" from="0/3" to="1/3" priority="-1">
        <lane id="0/3to1/3_0" index="0" speed="16.67" length="300.00" shape="0.00,891.75 288.65,891.75"/>
        <lane id="0/3to1/3_1" index="1" speed="16.67" length="300.00" shape="0.00,895.05 288.65,895.05"/>
        <lane id="0/3to1/3_2" index="2" speed="16.67" length="300.00" shape="0.00,898.35 288.65,898.35"/>
    </edge>
    <edge id="0/4to1/4" from="0/4" to="1/4" priority="-1">
        <lane id="0/4to1/4_0" index="0" speed="16.67" length="300.00" shape="0.00,1191.75 288.65,1191.75"/>
        <lane id="0/4to1/4_1" index="1" speed="16.67" length="300.00" shape="0.00,1195.05 288.65,1195.05"/>
        <lane id="0/4to1/4_2" index="2" speed="16.67" length="300.00" shape="0.00,1198.35 288.65,1198.35"/>
    </edge>
    <edge id="0/5to1/5" from="0/5" to="1/5" priority="-1">
        <lane id="0/5to1/5_0" index="0" speed="16.67" length="300.00" shape="0.00,1491.75 288.65,1491.75"/>
        <lane id="0/5to1/5_1" index="1" speed="16.67" length="300.00" shape="0.00,1495.05 288.65,1495.05"/>
        <lane id="0/5to1/5_2" index="2" speed="16.67" length="300.00" shape="0.00,1498.35 288.65,1498.35"/>
    </edge>
    <edge id="0/6to1/6" from="0/6" to="1/6" priority="-1">
        <lane id="0/6to1/6_0" index="0" speed="16.67" length="300.00" shape="0.00,1791.75 288.65,1791.75"/>
        <lane id="0/6to1/6_1" index="1" speed="16.67" length="300.00" shape="0.00,1795.05 288.65,1795.05"/>
        <lane id="0/6to1/6_2" index="2" speed="16.67" length="300.00" shape="0.00,1798.35 288.65,1798.35"/>
    </edge>
    <edge id="1/0to1/1" from="1/0" to="1/1" priority="-1">
        <lane id="1/0to1/1_0" index="0" speed="16.67" length="300.00" shape="308.25,0.00 308.25,288.65"/>
        <lane id="1/0to1/1_1" index="1" speed="16.67" length="300.00" shape="304.95,0.00 304.95,288.65"/>
        <lane id="1/0to1/1_2" index="2" speed="16.67" length="300.00" shape="301.65,0.00 301.65,288.65"/>
    </edge>
    <edge id="1/1to0/1" from="1/1" to="0/1" priority="-1">
        <lane id="1/1to0/1_0" index="0" speed="16.67" length="300.00" shape="288.65,308.25 0.00,308.25"/>
        <lane id="1/1to0/1_1" index="1" speed="16.67" length="300.00" shape="288.65,304.95 0.00,304.95"/>
        <lane id="1/1to0/1_2" index="2" speed="16.67" length="300.00" shape="288.65,301.65 0.00,301.65"/>
    </edge>
    <edge id="1/1to1/0" from="1/1" to="1/0" priority="-1">
        <lane id="1/1to1/0_0" index="0" speed="16.67" length="300.00" shape="291.75,288.65 291.75,0.00"/>
        <lane id="1/1to1/0_1" index="1" speed="16.67" length="300.00" shape="295.05,288.65 295.05,0.00"/>
        <lane id="1/1to1/0_2" index="2" speed="16.67" length="300.00" shape="298.35,288.65 298.35,0.00"/>
    </edge>
    <edge id="1/1to1/2" from="1/1" to="1/2" priority="-1">
        <lane id="1/1to1/2_0" index="0" speed="16.67" length="300.00" shape="308.25,311.35 308.25,588.65"/>
        <lane id="1/1to1/2_1" index="1" speed="16.67" length="300.00" shape="304.95,311.35 304.95,588.65"/>
        <lane id="1/1to1/2_2" index="2" speed="16.67" length="300.00" shape="301.65,311.35 301.65,588.65"/>
    </edge>
    <edge id="1/1to2/1" from="1/1" to="2/1" priority="-1">
        <lane id="1/1to2/1_0" index="0" speed="16.67" length="300.00" shape="311.35,291.75 588.65,291.75"/>
        <lane id="1/1to2/1_1" index="1" speed="16.67" length="300.00" shape="311.35,295.05 588.65,295.05"/>
        <lane id="1/1to2/1_2" index="2" speed="16.67" length="300.00" shape="311.35,298.35 588.65,298.35"/>
    </edge>
    <edge id="1/2to0/2" from="1/2" to="0/2" priority="-1">
        <lane id="1/2to0/2_0" index="0" speed="16.67" length="300.00" shape="288.65,608.25 0.00,608.25"/>
        <lane id="1/2to0/2_1" index="1" speed="16.67" length="300.00" shape="288.65,604.95 0.00,604.95"/>
        <lane id="1/2to0/2_2" index="2" speed="16.67" length="300.00" shape="288.65,601.65 0.00,601.65"/>
    </edge>
    <edge id="1/2to1/1" from="1/2" to="1/1" priority="-1">
        <lane id="1/2to1/1_0" index="0" speed="16.67" length="300.00" shape="291.75,588.65 291.75,311.35"/>
        <lane id="1/2to1/1_1" index="1" speed="16.67" length="300.00" shape="295.05,588.65 295.05,311.35"/>
        <lane id="1/2to1/1_2" index="2" speed="16.67" length="300.00" shape="298.35,588.65 298.35,311.35"/>
    </edge>
    <edge id="1/2to1/3" from="1/2" to="1/3" priority="-1">
        <lane id="1/2to1/3_0" index="0" speed="16.67" length="300.00" shape="308.25,611.35 308.25,888.65"/>
        <lane id="1/2to1/3_1" index="1" speed="16.67" length="300.00" shape="304.95,611.35 304.95,888.65"/>
        <lane id="1/2to1/3_2" index="2" speed="16.67" length="300.00" shape="301.65,611.35 301.65,888.65"/>
    </edge>
    <edge id="1/2to2/2" from="1/2" to="2/2" priority="-1">
        <lane id="1/2to2/2_0" index="0" speed="16.67" length="300.00" shape="311.35,591.75 588.65,591.75"/>
        <lane id="1/2to2/2_1" index="1" speed="16.67" length="300.00" shape="311.35,595.05 588.65,595.05"/>
        <lane id="1/2to2/2_2" index="2" speed="16.67" length="300.00" shape="311.35,598.35 588.65,598.35"/>
    </edge>
    <edge id="1/3to0/3" from="1/3" to="0/3" priority="-1">
        <lane id="1/3to0/3_0" index="0" speed="16.67" length="300.00" shape="288.65,908.25 0.00,908.25"/>
        <lane id="1/3to0/3_1" index="1" speed="16.67" length="300.00" shape="288.65,904.95 0.00,904.95"/>
        <lane id="1/3to0/3_2" index="2" speed="16.67" length="300.00" shape="288.65,901.65 0.00,901.65"/>
    </edge>
    <edge id="1/3to1/2" from="1/3" to="1/2" priority="-1">
        <lane id="1/3to1/2_0" index="0" speed="16.67" length="300.00" shape="291.75,888.65 291.75,611.35"/>
        <lane id="1/3to1/2_1" index="1" speed="16.67" length="300.00" shape="295.05,888.65 295.05,611.35"/>
        <lane id="1/3to1/2_2" index="2" speed="16.67" length="300.00" shape="298.35,888.65 298.35,611.35"/>
    </edge>
    <edge id="1/3to1/4" from="1/3" to="1/4" priority="-1">
        <lane id="1/3to1/4_0" index="0" speed="16.67" length="300.00" shape="308.25,911.35 308.25,1188.65"/>
        <lane id="1/3to1/4_1" index="1" speed="16.67" length="300.00" shape="304.95,911.35 304.95,1188.65"/>
        <lane id="1/3to1/4_2" index="2" speed="16.67" length="300.00" shape="301.65,911.35 301.65,1188.65"/>
    </edge>
    <edge id="1/3to2/3" from="1/3" to="2/3" priority="-1">
        <lane id="1/3to2/3_0" index="0" speed="16.67" length="300.00" shape="311.35,891.75 588.65,891.75"/>
        <lane id="1/3to2/3_1" index="1" speed="16.67" length="300.00" shape="311.35,895.05 588.65,895.05"/>
        <lane id="1/3to2/3_2" index="2" speed="16.67" length="300.00" shape="311.35,898.35 588.65,898.35"/>
    </edge>
    <edge id="1/4to0/4" from="1/4" to="0/4" priority="-1">
        <lane id="1/4to0/4_0" index="0" speed="16.67" length="300.00" shape="288.65,1208.25 0.00,1208.25"/>
        <lane id="1/4to0/4_1" index="1" speed="16.67" length="300.00" shape="288.65,1204.95 0.00,1204.95"/>
        <lane id="1/4to0/4_2" index="2" speed="16.67" length="300.00" shape="288.65,1201.65 0.00,1201.65"/>
    </edge>
    <edge id="1/4to1/3" from="1/4" to="1/3" priority="-1">
        <lane id="1/4to1/3_0" index="0" speed="16.67" length="300.00" shape="291.75,1188.65 291.75,911.35"/>
        <lane id="1/4to1/3_1" index="1" speed="16.67" length="300.00" shape="295.05,1188.65 295.05,911.35"/>
        <lane id="1/4to1/3_2" index="2" speed="16.67" length="300.00" shape="298.35,1188.65 298.35,911.35"/>
    </edge>
    <edge id="1/4to1/5" from="1/4" to="1/5" priority="-1">
        <lane id="1/4to1/5_0" index="0" speed="16.67" length="300.00" shape="308.25,1211.35 308.25,1488.65"/>
        <lane id="1/4to1/5_1" index="1" speed="16.67" length="300.00" shape="304.95,1211.35 304.95,1488.65"/>
        <lane id="1/4to1/5_2" index="2" speed="16.67" length="300.00" shape="301.65,1211.35 301.65,1488.65"/>
    </edge>
    <edge id="1/4to2/4" from="1/4" to="2/4" priority="-1">
        <lane id="1/4to2/4_0" index="0" speed="16.67" length="300.00" shape="311.35,1191.75 588.65,1191.75"/>
        <lane id="1/4to2/4_1" index="1" speed="16.67" length="300.00" shape="311.35,1195.05 588.65,1195.05"/>
        <lane id="1/4to2/4_2" index="2" speed="16.67" length="300.00" shape="311.35,1198.35 588.65,1198.35"/>
    </edge>
    <edge id="1/5to0/5" from="1/5" to="0/5" priority="-1">
        <lane id="1/5to0/5_0" index="0" speed="16.67" length="300.00" shape="288.65,1508.25 0.00,1508.25"/>
        <lane id="1/5to0/5_1" index="1" speed="16.67" length="300.00" shape="288.65,1504.95 0.00,1504.95"/>
        <lane id="1/5to0/5_2" index="2" speed="16.67" length="300.00" shape="288.65,1501.65 0.00,1501.65"/>
    </edge>
    <edge id="1/5to1/4" from="1/5" to="1/4" priority="-1">
        <lane id="1/5to1/4_0" index="0" speed="16.67" length="300.00" shape="291.75,1488.65 291.75,1211.35"/>
        <lane id="1/5to1/4_1" index="1" speed="16.67" length="300.00" shape="295.05,1488.65 295.05,1211.35"/>
        <lane id="1/5to1/4_2" index="2" speed="16.67" length="300.00" shape="298.35,1488.65 298.35,1211.35"/>
    </edge>
    <edge id="1/5to1/6" from="1/5" to="1/6" priority="-1">
        <lane id="1/5to1/6_0" index="0" speed="16.67" length="300.00" shape="308.25,1511.35 308.25,1788.65"/>
        <lane id="1/5to1/6_1" index="1" speed="16.67" length="300.00" shape="304.95,1511.35 304.95,1788.65"/>
        <lane id="1/5to1/6_2" index="2" speed="16.67" length="300.00" shape="301.65,1511.35 301.65,1788.65"/>
    </edge>
    <edge id="1/5to2/5" from="1/5" to="2/5" priority="-1">
        <lane id="1/5to2/5_0" index="0" speed="16.67" length="300.00" shape="311.35,1491.75 588.65,1491.75"/>
        <lane id="1/5to2/5_1" index="1" speed="16.67" length="300.00" shape="311.35,1495.05 588.65,1495.05"/>
        <lane id="1/5to2/5_2" index="2" speed="16.67" length="300.00" shape="311.35,1498.35 588.65,1498.35"/>
    </edge>
    <edge id="1/6to0/6" from="1/6" to="0/6" priority="-1">
        <lane id="1/6to0/6_0" index="0" speed="16.67" length="300.00" shape="288.65,1808.25 0.00,1808.25"/>
        <lane id="1/6to0/6_1" index="1" speed="16.67" length="300.00" shape="288.65,1804.95 0.00,1804.95"/>
        <lane id="1/6to0/6_2" index="2" speed="16.67" length="300.00" shape="288.65,1801.65 0.00,1801.65"/>
    </edge>
    <edge id="1/6to1/5" from="1/6" to="1/5" priority="-1">
        <lane id="1/6to1/5_0" index="0" speed="16.67" length="300.00" shape="291.75,1788.65 291.75,1511.35"/>
        <lane id="1/6to1/5_1" index="1" speed="16.67" length="300.00" shape="295.05,1788.65 295.05,1511.35"/>
        <lane id="1/6to1/5_2" index="2" speed="16.67" length="300.00" shape="298.35,1788.65 298.35,1511.35"/>
    </edge>
    <edge id="1/6to1/7" from="1/6" to="1/7" priority="-1">
        <lane id="1/6to1/7_0" index="0" speed="16.67" length="300.00" shape="308.25,1811.35 308.25,2100.00"/>
        <lane id="1/6to1/7_1" index="1" speed="16.67" length="300.00" shape="304.95,1811.35 304.95,2100.00"/>
        <lane id="1/6to1/7_2" index="2" speed="16.67" length="300.00" shape="301.65,1811.35 301.65,2100.00"/>
    </edge>
    <edge id="1/6to2/6" from="1/6" to="2/6" priority="-1">
        <lane id="1/6to2/6_0" index="0" speed="16.67" length="300.00" shape="311.35,1791.75 588.65,1791.75"/>
        <lane id="1/6to2/6_1" index="1" speed="16.67" length="300.00" shape="311.35,1795.05 588.65,1795.05"/>
        <lane id="1/6to2/6_2" index="2" speed="16.67" length="300.00" shape="311.35,1798.35 588.65,1798.35"/>
    </edge>
    <edge id="1/7to1/6" from="1/7" to="1/6" priority="-1">
        <lane id="1/7to1/6_0" index="0" speed="16.67" length="300.00" shape="291.75,2100.00 291.75,1811.35"/>
        <lane id="1/7to1/6_1" index="1" speed="16.67" length="300.00" shape="295.05,2100.00 295.05,1811.35"/>
        <lane id="1/7to1/6_2" index="2" speed="16.67" length="300.00" shape="298.35,2100.00 298.35,1811.35"/>
    </edge>
    <edge id="2/0to2/1" from="2/0" to="2/1" priority="-1">
        <lane id="2/0to2/1_0" index="0" speed="16.67" length="300.00" shape="608.25,0.00 608.25,288.65"/>
        <lane id="2/0to2/1_1" index="1" speed="16.67" length="300.00" shape="604.95,0.00 604.95,288.65"/>
        <lane id="2/0to2/1_2" index="2" speed="16.67" length="300.00" shape="601.65,0.00 601.65,288.65"/>
    </edge>
    <edge id="2/1to1/1" from="2/1" to="1/1" priority="-1">
        <lane id="2/1to1/1_0" index="0" speed="16.67" length="300.00" shape="588.65,308.25 311.35,308.25"/>
        <lane id="2/1to1/1_1" index="1" speed="16.67" length="300.00" shape="588.65,304.95 311.35,304.95"/>
        <lane id="2/1to1/1_2" index="2" speed="16.67" length="300.00" shape="588.65,301.65 311.35,301.65"/>
    </edge>
    <edge id="2/1to2/0" from="2/1" to="2/0" priority="-1">
        <lane id="2/1to2/0_0" index="0" speed="16.67" length="300.00" shape="591.75,288.65 591.75,0.00"/>
        <lane id="2/1to2/0_1" index="1" speed="16.67" length="300.00" shape="595.05,288.65 595.05,0.00"/>
        <lane id="2/1to2/0_2" index="2" speed="16.67" length="300.00" shape="598.35,288.65 598.35,0.00"/>
    </edge>
    <edge id="2/1to2/2" from="2/1" to="2/2" priority="-1">
        <lane id="2/1to2/2_0" index="0" speed="16.67" length="300.00" shape="608.25,311.35 608.25,588.65"/>
        <lane id="2/1to2/2_1" index="1" speed="16.67" length="300.00" shape="604.95,311.35 604.95,588.65"/>
        <lane id="2/1to2/2_2" index="2" speed="16.67" length="300.00" shape="601.65,311.35 601.65,588.65"/>
    </edge>
    <edge id="2/1to3/1" from="2/1" to="3/1" priority="-1">
        <lane id="2/1to3/1_0" index="0" speed="16.67" length="300.00" shape="611.35,291.75 888.65,291.75"/>
        <lane id="2/1to3/1_1" index="1" speed="16.67" length="300.00" shape="611.35,295.05 888.65,295.05"/>
        <lane id="2/1to3/1_2" index="2" speed="16.67" length="300.00" shape="611.35,298.35 888.65,298.35"/>
    </edge>
    <edge id="2/2to1/2" from="2/2" to="1/2" priority="-1">
        <lane id="2/2to1/2_0" index="0" speed="16.67" length="300.00" shape="588.65,608.25 311.35,608.25"/>
        <lane id="2/2to1/2_1" index="1" speed="16.67" length="300.00" shape="588.65,604.95 311.35,604.95"/>
        <lane id="2/2to1/2_2" index="2" speed="16.67" length="300.00" shape="588.65,601.65 311.35,601.65"/>
    </edge>
    <edge id="2/2to2/1" from="2/2" to="2/1" priority="-1">
        <lane id="2/2to2/1_0" index="0" speed="16.67" length="300.00" shape="591.75,588.65 591.75,311.35"/>
        <lane id="2/2to2/1_1" index="1" speed="16.67" length="300.00" shape="595.05,588.65 595.05,311.35"/>
        <lane id="2/2to2/1_2" index="2" speed="16.67" length="300.00" shape="598.35,588.65 598.35,311.35"/>
    </edge>
    <edge id="2/2to2/3" from="2/2" to="2/3" priority="-1">
        <lane id="2/2to2/3_0" index="0" speed="16.67" length="300.00" shape="608.25,611.35 608.25,888.65"/>
        <lane id="2/2to2/3_1" index="1" speed="16.67" length="300.00" shape="604.95,611.35 604.95,888.65"/>
        <lane id="2/2to2/3_2" index="2" speed="16.67" length="300.00" shape="601.65,611.35 601.65,888.65"/>
    </edge>
    <edge id="2/2to3/2" from="2/2" to="3/2" priority="-1">
        <lane id="2/2to3/2_0" index="0" speed="16.67" length="300.00" shape="611.35,591.75 888.65,591.75"/>
        <lane id="2/2to3/2_1" index="1" speed="16.67" length="300.00" shape="611.35,595.05 888.65,595.05"/>
        <lane id="2/2to3/2_2" index="2" speed="16.67" length="300.00" shape="611.35,598.35 888.65,598.35"/>
    </edge>
    <edge id="2/3to1/3" from="2/3" to="1/3" priority="-1">
        <lane id="2/3to1/3_0" index="0" speed="16.67" length="300.00" shape="588.65,908.25 311.35,908.25"/>
        <lane id="2/3to1/3_1" index="1" speed="16.67" length="300.00" shape="588.65,904.95 311.35,904.95"/>
        <lane id="2/3to1/3_2" index="2" speed="16.67" length="300.00" shape="588.65,901.65 311.35,901.65"/>
    </edge>
    <edge id="2/3to2/2" from="2/3" to="2/2" priority="-1">
        <lane id="2/3to2/2_0" index="0" speed="16.67" length="300.00" shape="591.75,888.65 591.75,611.35"/>
        <lane id="2/3to2/2_1" index="1" speed="16.67" length="300.00" shape="595.05,888.65 595.05,611.35"/>
        <lane id="2/3to2/2_2" index="2" speed="16.67" length="300.00" shape="598.35,888.65 598.35,611.35"/>
    </edge>
    <edge id="2/3to2/4" from="2/3" to="2/4" priority="-1">
        <lane id="2/3to2/4_0" index="0" speed="16.67" length="300.00" shape="608.25,911.35 608.25,1188.65"/>
        <lane id="2/3to2/4_1" index="1" speed="16.67" length="300.00" shape="604.95,911.35 604.95,1188.65"/>
        <lane id="2/3to2/4_2" index="2" speed="16.67" length="300.00" shape="601.65,911.35 601.65,1188.65"/>
    </edge>
    <edge id="2/3to3/3" from="2/3" to="3/3" priority="-1">
        <lane id="2/3to3/3_0" index="0" speed="16.67" length="300.00" shape="611.35,891.75 888.65,891.75"/>
        <lane id="2/3to3/3_1" index="1" speed="16.67" length="300.00" shape="611.35,895.05 888.65,895.05"/>
        <lane id="2/3to3/3_2" index="2" speed="16.67" length="300.00" shape="611.35,898.35 888.65,898.35"/>
    </edge>
    <edge id="2/4to1/4" from="2/4" to="1/4" priority="-1">
        <lane id="2/4to1/4_0" index="0" speed="16.67" length="300.00" shape="588.65,1208.25 311.35,1208.25"/>
        <lane id="2/4to1/4_1" index="1" speed="16.67" length="300.00" shape="588.65,1204.95 311.35,1204.95"/>
        <lane id="2/4to1/4_2" index="2" speed="16.67" length="300.00" shape="588.65,1201.65 311.35,1201.65"/>
    </edge>
    <edge id="2/4to2/3" from="2/4" to="2/3" priority="-1">
        <lane id="2/4to2/3_0" index="0" speed="16.67" length="300.00" shape="591.75,1188.65 591.75,911.35"/>
        <lane id="2/4to2/3_1" index="1" speed="16.67" length="300.00" shape="595.05,1188.65 595.05,911.35"/>
        <lane id="2/4to2/3_2" index="2" speed="16.67" length="300.00" shape="598.35,1188.65 598.35,911.35"/>
    </edge>
    <edge id="2/4to2/5" from="2/4" to="2/5" priority="-1">
        <lane id="2/4to2/5_0" index="0" speed="16.67" length="300.00" shape="608.25,1211.35 608.25,1488.65"/>
        <lane id="2/4to2/5_1" index="1" speed="16.67" length="300.00" shape="604.95,1211.35 604.95,1488.65"/>
        <lane id="2/4to2/5_2" index="2" speed="16.67" length="300.00" shape="601.65,1211.35 601.65,1488.65"/>
    </edge>
    <edge id="2/4to3/4" from="2/4" to="3/4" priority="-1">
        <lane id="2/4to3/4_0" index="0" speed="16.67" length="300.00" shape="611.35,1191.75 888.65,1191.75"/>
        <lane id="2/4to3/4_1" index="1" speed="16.67" length="300.00" shape="611.35,1195.05 888.65,1195.05"/>
        <lane id="2/4to3/4_2" index="2" speed="16.67" length="300.00" shape="611.35,1198.35 888.65,1198.35"/>
    </edge>
    <edge id="2/5to1/5" from="2/5" to="1/5" priority="-1">
        <lane id="2/5to1/5_0" index="0" speed="16.67" length="300.00" shape="588.65,1508.25 311.35,1508.25"/>
        <lane id="2/5to1/5_1" index="1" speed="16.67" length="300.00" shape="588.65,1504.95 311.35,1504.95"/>
        <lane id="2/5to1/5_2" index="2" speed="16.67" length="300.00" shape="588.65,1501.65 311.35,1501.65"/>
    </edge>
    <edge id="2/5to2/4" from="2/5" to="2/4" priority="-1">
        <lane id="2/5to2/4_0" index="0" speed="16.67" length="300.00" shape="591.75,1488.65 591.75,1211.35"/>
        <lane id="2/5to2/4_1" index="1" speed="16.67" length="300.00" shape="595.05,1488.65 595.05,1211.35"/>
        <lane id="2/5to2/4_2" index="2" speed="16.67" length="300.00" shape="598.35,1488.65 598.35,1211.35"/>
    </edge>
    <edge id="2/5to2/6" from="2/5" to="2/6" priority="-1">
        <lane id="2/5to2/6_0" index="0" speed="16.67" length="300.00" shape="608.25,1511.35 608.25,1788.65"/>
        <lane id="2/5to2/6_1" index="1" speed="16.67" length="300.00" shape="604.95,1511.35 604.95,1788.65"/>
        <lane id="2/5to2/6_2" index="2" speed="16.67" length="300.00" shape="601.65,1511.35 601.65,1788.65"/>
    </edge>
    <edge id="2/5to3/5" from="2/5" to="3/5" priority="-1">
        <lane id="2/5to3/5_0" index="0" speed="16.67" length="300.00" shape="611.35,1491.75 888.65,1491.75"/>
        <lane id="2/5to3/5_1" index="1" speed="16.67" length="300.00" shape="611.35,1495.05 888.65,1495.05"/>
        <lane id="2/5to3/5_2" index="2" speed="16.67" length="300.00" shape="611.35,1498.35 888.65,1498.35"/>
    </edge>
    <edge id="2/6to1/6" from="2/6" to="1/6" priority="-1">
        <lane id="2/6to1/6_0" index="0" speed="16.67" length="300.00" shape="588.65,1808.25 311.35,1808.25"/>
        <lane id="2/6to1/6_1" index="1" speed="16.67" length="300.00" shape="588.65,1804.95 311.35,1804.95"/>
        <lane id="2/6to1/6_2" index="2" speed="16.67" length="300.00" shape="588.65,1801.65 311.35,1801.65"/>
    </edge>
    <edge id="2/6to2/5" from="2/6" to="2/5" priority="-1">
        <lane id="2/6to2/5_0" index="0" speed="16.67" length="300.00" shape="591.75,1788.65 591.75,1511.35"/>
        <lane id="2/6to2/5_1" index="1" speed="16.67" length="300.00" shape="595.05,1788.65 595.05,1511.35"/>
        <lane id="2/6to2/5_2" index="2" speed="16.67" length="300.00" shape="598.35,1788.65 598.35,1511.35"/>
    </edge>
    <edge id="2/6to2/7" from="2/6" to="2/7" priority="-1">
        <lane id="2/6to2/7_0" index="0" speed="16.67" length="300.00" shape="608.25,1811.35 608.25,2100.00"/>
        <lane id="2/6to2/7_1" index="1" speed="16.67" length="300.00" shape="604.95,1811.35 604.95,2100.00"/>
        <lane id="2/6to2/7_2" index="2" speed="16.67" length="300.00" shape="601.65,1811.35 601.65,2100.00"/>
    </edge>
    <edge id="2/6to3/6" from="2/6" to="3/6" priority="-1">
        <lane id="2/6to3/6_0" index="0" speed="16.67" length="300.00" shape="611.35,1791.75 888.65,1791.75"/>
        <lane id="2/6to3/6_1" index="1" speed="16.67" length="300.00" shape="611.35,1795.05 888.65,1795.05"/>
        <lane id="2/6to3/6_2" index="2" speed="16.67" length="300.00" shape="611.35,1798.35 888.65,1798.35"/>
    </edge>
    <edge id="2/7to2/6" from="2/7" to="2/6" priority="-1">
        <lane id="2/7to2/6_0" index="0" speed="16.67" length="300.00" shape="591.75,2100.00 591.75,1811.35"/>
        <lane id="2/7to2/6_1" index="1" speed="16.67" length="300.00" shape="595.05,2100.00 595.05,1811.35"/>
        <lane id="2/7to2/6_2" index="2" speed="16.67" length="300.00" shape="598.35,2100.00 598.35,1811.35"/>
    </edge>
    <edge id="3/0to3/1" from="3/0" to="3/1" priority="-1">
        <lane id="3/0to3/1_0" index="0" speed="16.67" length="300.00" shape="908.25,0.00 908.25,288.65"/>
        <lane id="3/0to3/1_1" index="1" speed="16.67" length="300.00" shape="904.95,0.00 904.95,288.65"/>
        <lane id="3/0to3/1_2" index="2" speed="16.67" length="300.00" shape="901.65,0.00 901.65,288.65"/>
    </edge>
    <edge id="3/1to2/1" from="3/1" to="2/1" priority="-1">
        <lane id="3/1to2/1_0" index="0" speed="16.67" length="300.00" shape="888.65,308.25 611.35,308.25"/>
        <lane id="3/1to2/1_1" index="1" speed="16.67" length="300.00" shape="888.65,304.95 611.35,304.95"/>
        <lane id="3/1to2/1_2" index="2" speed="16.67" length="300.00" shape="888.65,301.65 611.35,301.65"/>
    </edge>
    <edge id="3/1to3/0" from="3/1" to="3/0" priority="-1">
        <lane id="3/1to3/0_0" index="0" speed="16.67" length="300.00" shape="891.75,288.65 891.75,0.00"/>
        <lane id="3/1to3/0_1" index="1" speed="16.67" length="300.00" shape="895.05,288.65 895.05,0.00"/>
        <lane id="3/1to3/0_2" index="2" speed="16.67" length="300.00" shape="898.35,288.65 898.35,0.00"/>
    </edge>
    <edge id="3/1to3/2" from="3/1" to="3/2" priority="-1">
        <lane id="3/1to3/2_0" index="0" speed="16.67" length="300.00" shape="908.25,311.35 908.25,588.65"/>
        <lane id="3/1to3/2_1" index="1" speed="16.67" length="300.00" shape="904.95,311.35 904.95,588.65"/>
        <lane id="3/1to3/2_2" index="2" speed="16.67" length="300.00" shape="901.65,311.35 901.65,588.65"/>
    </edge>
    <edge id="3/1to4/1" from="3/1" to="4/1" priority="-1">
        <lane id="3/1to4/1_0" index="0" speed="16.67" length="300.00" shape="911.35,291.75 1188.65,291.75"/>
        <lane id="3/1to4/1_1" index="1" speed="16.67" length="300.00" shape="911.35,295.05 1188.65,295.05"/>
        <lane id="3/1to4/1_2" index="2" speed="16.67" length="300.00" shape="911.35,298.35 1188.65,298.35"/>
    </edge>
    <edge id="3/2to2/2" from="3/2" to="2/2" priority="-1">
        <lane id="3/2to2/2_0" index="0" speed="16.67" length="300.00" shape="888.65,608.25 611.35,608.25"/>
        <lane id="3/2to2/2_1" index="1" speed="16.67" length="300.00" shape="888.65,604.95 611.35,604.95"/>
        <lane id="3/2to2/2_2" index="2" speed="16.67" length="300.00" shape="888.65,601.65 611.35,601.65"/>
    </edge>
    <edge id="3/2to3/1" from="3/2" to="3/1" priority="-1">
        <lane id="3/2to3/1_0" index="0" speed="16.67" length="300.00" shape="891.75,588.65 891.75,311.35"/>
        <lane id="3/2to3/1_1" index="1" speed="16.67" length="300.00" shape="895.05,588.65 895.05,311.35"/>
        <lane id="3/2to3/1_2" index="2" speed="16.67" length="300.00" shape="898.35,588.65 898.35,311.35"/>
    </edge>
    <edge id="3/2to3/3" from="3/2" to="3/3" priority="-1">
        <lane id="3/2to3/3_0" index="0" speed="16.67" length="300.00" shape="908.25,611.35 908.25,888.65"/>
        <lane id="3/2to3/3_1" index="1" speed="16.67" length="300.00" shape="904.95,611.35 904.95,888.65"/>
        <lane id="3/2to3/3_2" index="2" speed="16.67" length="300.00" shape="901.65,611.35 901.65,888.65"/>
    </edge>
    <edge id="3/2to4/2" from="3/2" to="4/2" priority="-1">
        <lane id="3/2to4/2_0" index="0" speed="16.67" length="300.00" shape="911.35,591.75 1188.65,591.75"/>
        <lane id="3/2to4/2_1" index="1" speed="16.67" length="300.00" shape="911.35,595.05 1188.65,595.05"/>
        <lane id="3/2to4/2_2" index="2" speed="16.67" length="300.00" shape="911.35,598.35 1188.65,598.35"/>
    </edge>
    <edge id="3/3to2/3" from="3/3" to="2/3" priority="-1">
        <lane id="3/3to2/3_0" index="0" speed="16.67" length="300.00" shape="888.65,908.25 611.35,908.25"/>
        <lane id="3/3to2/3_1" index="1" speed="16.67" length="300.00" shape="888.65,904.95 611.35,904.95"/>
        <lane id="3/3to2/3_2" index="2" speed="16.67" length="300.00" shape="888.65,901.65 611.35,901.65"/>
    </edge>
    <edge id="3/3to3/2" from="3/3" to="3/2" priority="-1">
        <lane id="3/3to3/2_0" index="0" speed="16.67" length="300.00" shape="891.75,888.65 891.75,611.35"/>
        <lane id="3/3to3/2_1" index="1" speed="16.67" length="300.00" shape="895.05,888.65 895.05,611.35"/>
        <lane id="3/3to3/2_2" index="2" speed="16.67" length="300.00" shape="898.35,888.65 898.35,611.35"/>
    </edge>
    <edge id="3/3to3/4" from="3/3" to="3/4" priority="-1">
        <lane id="3/3to3/4_0" index="0" speed="16.67" length="300.00" shape="908.25,911.35 908.25,1188.65"/>
        <lane id="3/3to3/4_1" index="1" speed="16.67" length="300.00" shape="904.95,911.35 904.95,1188.65"/>
        <lane id="3/3to3/4_2" index="2" speed="16.67" length="300.00" shape="901.65,911.35 901.65,1188.65"/>
    </edge>
    <edge id="3/3to4/3" from="3/3" to="4/3" priority="-1">
        <lane id="3/3to4/3_0" index="0" speed="16.67" length="300.00" shape="911.35,891.75 1188.65,891.75"/>
        <lane id="3/3to4/3_1" index="1" speed="16.67" length="300.00" shape="911.35,895.05 1188.65,895.05"/>
        <lane id="3/3to4/3_2" index="2" speed="16.67" length="300.00" shape="911.35,898.35 1188.65,898.35"/>
    </edge>
    <edge id="3/4to2/4" from="3/4" to="2/4" priority="-1">
        <lane id="3/4to2/4_0" index="0" speed="16.67" length="300.00" shape="888.65,1208.25 611.35,1208.25"/>
        <lane id="3/4to2/4_1" index="1" speed="16.67" length="300.00" shape="888.65,1204.95 611.35,1204.95"/>
        <lane id="3/4to2/4_2" index="2" speed="16.67" length="300.00" shape="888.65,1201.65 611.35,1201.65"/>
    </edge>
    <edge id="3/4to3/3" from="3/4" to="3/3" priority="-1">
        <lane id="3/4to3/3_0" index="0" speed="16.67" length="300.00" shape="891.75,1188.65 891.75,911.35"/>